ligand_21_conformer_1_docked
     RDKit          3D

 39 42  0  0  0  0  0  0  0  0999 V2000
    2.9000   42.4690   52.2150 C   0  0  0  0  0  0  0  0  0  0  0  0
    2.6920   43.9670   52.4600 C   0  0  1  0  0  0  0  0  0  0  0  0
    2.3350   44.6370   51.1940 N   0  0  0  0  0  0  0  0  0  0  0  0
    2.7540   46.0500   51.1370 C   0  0  0  0  0  0  0  0  0  0  0  0
    4.1110   46.2700   51.7470 C   0  0  0  0  0  0  0  0  0  0  0  0
    5.2250   45.8950   51.0510 N   0  0  0  0  0  0  0  0  0  0  0  0
    6.4450   46.1280   51.5840 C   0  0  0  0  0  0  0  0  0  0  0  0
    7.9470   45.7540   50.8910 S   0  0  0  0  0  0  0  0  0  0  0  0
    8.7820   46.3970   52.2130 C   0  0  0  0  0  0  0  0  0  0  0  0
    7.9410   46.8840   53.1510 C   0  0  0  0  0  0  0  0  0  0  0  0
    6.5960   46.7440   52.8150 C   0  0  0  0  0  0  0  0  0  0  0  0
    5.4590   47.1300   53.5200 C   0  0  0  0  0  0  0  0  0  0  0  0
    5.5510   47.6970   54.6420 O   0  0  0  0  0  0  0  0  0  0  0  0
    4.2330   46.8870   52.9670 N   0  0  0  0  0  0  0  0  0  0  0  0
    8.6550   47.4630   54.3060 C   0  0  0  0  0  0  0  0  0  0  0  0
   10.1470   47.2490   53.9340 C   0  0  0  0  0  0  0  0  0  0  0  0
   10.2060   46.5510   52.5510 C   0  0  0  0  0  0  0  0  0  0  0  0
    1.6160   44.1590   53.4970 C   0  0  0  0  0  0  0  0  0  0  0  0
    1.7670   44.8290   54.7040 C   0  0  0  0  0  0  0  0  0  0  0  0
    0.5890   44.8670   55.4590 C   0  0  0  0  0  0  0  0  0  0  0  0
    0.4740   45.7220   57.1600 Br  0  0  0  0  0  0  0  0  0  0  0  0
   -0.4890   44.2310   54.8570 C   0  0  0  0  0  0  0  0  0  0  0  0
    0.0240   43.6200   53.3770 S   0  0  0  0  0  0  0  0  0  0  0  0
    2.9726   41.9462   53.1801 H   0  0  0  0  0  0  0  0  0  0  0  0
    2.0488   42.0691   51.6445 H   0  0  0  0  0  0  0  0  0  0  0  0
    3.8280   42.3161   51.6445 H   0  0  0  0  0  0  0  0  0  0  0  0
    3.6234   44.4172   52.8339 H   0  0  0  0  0  0  0  0  0  0  0  0
    2.7970   44.1320   50.4010 H   0  0  0  0  0  0  0  0  0  0  0  0
    2.7841   46.3675   50.0842 H   0  0  0  0  0  0  0  0  0  0  0  0
    2.0267   46.6393   51.7147 H   0  0  0  0  0  0  0  0  0  0  0  0
    3.3740   47.1770   53.4870 H   0  0  0  0  0  0  0  0  0  0  0  0
    8.4245   48.5327   54.4180 H   0  0  0  0  0  0  0  0  0  0  0  0
    8.3759   47.0020   55.2649 H   0  0  0  0  0  0  0  0  0  0  0  0
   10.6611   48.2201   53.8832 H   0  0  0  0  0  0  0  0  0  0  0  0
   10.6430   46.6280   54.6945 H   0  0  0  0  0  0  0  0  0  0  0  0
   10.7250   47.1777   51.8109 H   0  0  0  0  0  0  0  0  0  0  0  0
   10.7601   45.6008   52.5618 H   0  0  0  0  0  0  0  0  0  0  0  0
    2.7138   45.2826   55.0325 H   0  0  0  0  0  0  0  0  0  0  0  0
   -1.5023   44.1424   55.2757 H   0  0  0  0  0  0  0  0  0  0  0  0
  1  2  1  0
  2  3  1  0
  3  4  1  0
  4  5  1  0
  5  6  2  0
  6  7  1  0
  7  8  1  0
  8  9  1  0
  9 10  2  0
 10 11  1  0
 11 12  1  0
 12 13  2  0
 12 14  1  0
 10 15  1  0
 15 16  1  0
 16 17  1  0
  2 18  1  0
 18 19  2  0
 19 20  1  0
 20 21  1  0
 20 22  2  0
 22 23  1  0
 14  5  1  0
 23 18  1  0
 11  7  2  0
 17  9  1  0
  1 24  1  0
  1 25  1  0
  1 26  1  0
  2 27  1  1
  3 28  1  0
  4 29  1  0
  4 30  1  0
 14 31  1  0
 15 32  1  0
 15 33  1  0
 16 34  1  0
 16 35  1  0
 17 36  1  0
 17 37  1  0
 19 38  1  0
 22 39  1  0
M  END
>  <meeko>  (1) 
{"is_sidechain": [false], "free_energy": -8.771, "intermolecular_energy": -10.822, "internal_energy": -0.466}

$$$$
ligand_21_conformer_1_docked
     RDKit          3D

 39 42  0  0  0  0  0  0  0  0999 V2000
   -0.6980   45.0020   52.0020 C   0  0  0  0  0  0  0  0  0  0  0  0
    0.5980   44.9990   52.8190 C   0  0  1  0  0  0  0  0  0  0  0  0
    1.4200   46.1710   52.4590 N   0  0  0  0  0  0  0  0  0  0  0  0
    2.4250   45.8890   51.4180 C   0  0  0  0  0  0  0  0  0  0  0  0
    3.8310   46.1270   51.9000 C   0  0  0  0  0  0  0  0  0  0  0  0
    4.8800   45.7890   51.0930 N   0  0  0  0  0  0  0  0  0  0  0  0
    6.1410   46.0380   51.5120 C   0  0  0  0  0  0  0  0  0  0  0  0
    7.5760   45.7100   50.6700 S   0  0  0  0  0  0  0  0  0  0  0  0
    8.5220   46.3450   51.9200 C   0  0  0  0  0  0  0  0  0  0  0  0
    7.7650   46.7950   52.9450 C   0  0  0  0  0  0  0  0  0  0  0  0
    6.3970   46.6320   52.7360 C   0  0  0  0  0  0  0  0  0  0  0  0
    5.3250   46.9800   53.5550 C   0  0  0  0  0  0  0  0  0  0  0  0
    5.5140   47.5250   54.6750 O   0  0  0  0  0  0  0  0  0  0  0  0
    4.0570   46.7210   53.1170 N   0  0  0  0  0  0  0  0  0  0  0  0
    8.5750   47.3650   54.0380 C   0  0  0  0  0  0  0  0  0  0  0  0
   10.0280   47.1900   53.5210 C   0  0  0  0  0  0  0  0  0  0  0  0
    9.9670   46.5220   52.1240 C   0  0  0  0  0  0  0  0  0  0  0  0
    0.2640   45.0020   54.2880 C   0  0  0  0  0  0  0  0  0  0  0  0
   -0.9570   44.6320   54.8390 C   0  0  0  0  0  0  0  0  0  0  0  0
   -0.9730   44.7170   56.2360 C   0  0  0  0  0  0  0  0  0  0  0  0
   -2.5020   44.2690   57.2850 Br  0  0  0  0  0  0  0  0  0  0  0  0
    0.2240   45.1510   56.7910 C   0  0  0  0  0  0  0  0  0  0  0  0
    1.3100   45.4300   55.5370 S   0  0  0  0  0  0  0  0  0  0  0  0
   -1.5612   45.0040   52.6838 H   0  0  0  0  0  0  0  0  0  0  0  0
   -0.7296   45.9002   51.3678 H   0  0  0  0  0  0  0  0  0  0  0  0
   -0.7337   44.1039   51.3678 H   0  0  0  0  0  0  0  0  0  0  0  0
    1.1785   44.0921   52.5940 H   0  0  0  0  0  0  0  0  0  0  0  0
    0.7910   46.9300   52.1030 H   0  0  0  0  0  0  0  0  0  0  0  0
    2.3300   44.8371   51.1106 H   0  0  0  0  0  0  0  0  0  0  0  0
    2.2381   46.5725   50.5767 H   0  0  0  0  0  0  0  0  0  0  0  0
    3.2460   46.9830   53.7220 H   0  0  0  0  0  0  0  0  0  0  0  0
    8.3361   48.4272   54.1950 H   0  0  0  0  0  0  0  0  0  0  0  0
    8.3980   46.8788   55.0087 H   0  0  0  0  0  0  0  0  0  0  0  0
   10.5165   48.1725   53.4431 H   0  0  0  0  0  0  0  0  0  0  0  0
   10.6064   46.5643   54.2167 H   0  0  0  0  0  0  0  0  0  0  0  0
   10.4007   47.1745   51.3519 H   0  0  0  0  0  0  0  0  0  0  0  0
   10.5374   45.5836   52.0609 H   0  0  0  0  0  0  0  0  0  0  0  0
   -1.8203   44.3065   54.2401 H   0  0  0  0  0  0  0  0  0  0  0  0
    0.4265   45.2883   57.8634 H   0  0  0  0  0  0  0  0  0  0  0  0
  1  2  1  0
  2  3  1  0
  3  4  1  0
  4  5  1  0
  5  6  2  0
  6  7  1  0
  7  8  1  0
  8  9  1  0
  9 10  2  0
 10 11  1  0
 11 12  1  0
 12 13  2  0
 12 14  1  0
 10 15  1  0
 15 16  1  0
 16 17  1  0
  2 18  1  0
 18 19  2  0
 19 20  1  0
 20 21  1  0
 20 22  2  0
 22 23  1  0
 14  5  1  0
 23 18  1  0
 11  7  2  0
 17  9  1  0
  1 24  1  0
  1 25  1  0
  1 26  1  0
  2 27  1  1
  3 28  1  0
  4 29  1  0
  4 30  1  0
 14 31  1  0
 15 32  1  0
 15 33  1  0
 16 34  1  0
 16 35  1  0
 17 36  1  0
 17 37  1  0
 19 38  1  0
 22 39  1  0
M  END
>  <meeko>  (2) 
{"is_sidechain": [false], "free_energy": -8.626, "intermolecular_energy": -10.7, "internal_energy": -0.409}

$$$$
ligand_21_conformer_1_docked
     RDKit          3D

 39 42  0  0  0  0  0  0  0  0999 V2000
    0.6760   42.9690   52.2950 C   0  0  0  0  0  0  0  0  0  0  0  0
    1.6240   43.9280   53.0210 C   0  0  1  0  0  0  0  0  0  0  0  0
    1.9030   45.0990   52.1660 N   0  0  0  0  0  0  0  0  0  0  0  0
    2.8810   44.8280   51.0960 C   0  0  0  0  0  0  0  0  0  0  0  0
    4.2690   45.2800   51.4610 C   0  0  0  0  0  0  0  0  0  0  0  0
    4.4980   45.7960   52.7050 N   0  0  0  0  0  0  0  0  0  0  0  0
    5.7530   46.1660   53.0450 C   0  0  0  0  0  0  0  0  0  0  0  0
    6.2560   46.8160   54.5290 S   0  0  0  0  0  0  0  0  0  0  0  0
    7.8600   46.9190   54.0050 C   0  0  0  0  0  0  0  0  0  0  0  0
    8.0060   46.4690   52.7400 C   0  0  0  0  0  0  0  0  0  0  0  0
    6.8150   46.0300   52.1670 C   0  0  0  0  0  0  0  0  0  0  0  0
    6.5790   45.4990   50.9010 C   0  0  0  0  0  0  0  0  0  0  0  0
    7.5170   45.3550   50.0720 O   0  0  0  0  0  0  0  0  0  0  0  0
    5.3050   45.1310   50.5730 N   0  0  0  0  0  0  0  0  0  0  0  0
    9.4040   46.5380   52.2720 C   0  0  0  0  0  0  0  0  0  0  0  0
   10.1500   47.1360   53.4960 C   0  0  0  0  0  0  0  0  0  0  0  0
    9.1140   47.3730   54.6250 C   0  0  0  0  0  0  0  0  0  0  0  0
    1.0060   44.3480   54.3290 C   0  0  0  0  0  0  0  0  0  0  0  0
   -0.3010   44.0940   54.7230 C   0  0  0  0  0  0  0  0  0  0  0  0
   -0.5930   44.5860   56.0010 C   0  0  0  0  0  0  0  0  0  0  0  0
   -2.3020   44.3880   56.8240 Br  0  0  0  0  0  0  0  0  0  0  0  0
    0.4740   45.2260   56.6160 C   0  0  0  0  0  0  0  0  0  0  0  0
    1.7880   45.1790   55.5680 S   0  0  0  0  0  0  0  0  0  0  0  0
    0.1034   42.3898   53.0343 H   0  0  0  0  0  0  0  0  0  0  0  0
   -0.0169   43.5456   51.6646 H   0  0  0  0  0  0  0  0  0  0  0  0
    1.2606   42.2828   51.6646 H   0  0  0  0  0  0  0  0  0  0  0  0
    2.5779   43.4220   53.2308 H   0  0  0  0  0  0  0  0  0  0  0  0
    1.0100   45.4110   51.7150 H   0  0  0  0  0  0  0  0  0  0  0  0
    2.9014   43.7455   50.9017 H   0  0  0  0  0  0  0  0  0  0  0  0
    2.5680   45.3911   50.2044 H   0  0  0  0  0  0  0  0  0  0  0  0
    5.1190   44.7270   49.6270 H   0  0  0  0  0  0  0  0  0  0  0  0
    9.7883   45.5375   52.0243 H   0  0  0  0  0  0  0  0  0  0  0  0
    9.5265   47.1332   51.3551 H   0  0  0  0  0  0  0  0  0  0  0  0
   10.9228   46.4334   53.8410 H   0  0  0  0  0  0  0  0  0  0  0  0
   10.6353   48.0838   53.2199 H   0  0  0  0  0  0  0  0  0  0  0  0
    9.3550   46.7769   55.5175 H   0  0  0  0  0  0  0  0  0  0  0  0
    9.0781   48.4148   54.9763 H   0  0  0  0  0  0  0  0  0  0  0  0
   -1.0313   43.5615   54.0961 H   0  0  0  0  0  0  0  0  0  0  0  0
    0.4621   45.6845   57.6158 H   0  0  0  0  0  0  0  0  0  0  0  0
  1  2  1  0
  2  3  1  0
  3  4  1  0
  4  5  1  0
  5  6  2  0
  6  7  1  0
  7  8  1  0
  8  9  1  0
  9 10  2  0
 10 11  1  0
 11 12  1  0
 12 13  2  0
 12 14  1  0
 10 15  1  0
 15 16  1  0
 16 17  1  0
  2 18  1  0
 18 19  2  0
 19 20  1  0
 20 21  1  0
 20 22  2  0
 22 23  1  0
 14  5  1  0
 23 18  1  0
 11  7  2  0
 17  9  1  0
  1 24  1  0
  1 25  1  0
  1 26  1  0
  2 27  1  1
  3 28  1  0
  4 29  1  0
  4 30  1  0
 14 31  1  0
 15 32  1  0
 15 33  1  0
 16 34  1  0
 16 35  1  0
 17 36  1  0
 17 37  1  0
 19 38  1  0
 22 39  1  0
M  END
>  <meeko>  (3) 
{"is_sidechain": [false], "free_energy": -8.155, "intermolecular_energy": -10.167, "internal_energy": -0.361}

$$$$
ligand_21_conformer_1_docked
     RDKit          3D

 39 42  0  0  0  0  0  0  0  0999 V2000
    0.9350   42.6920   53.3340 C   0  0  0  0  0  0  0  0  0  0  0  0
    0.9720   44.0500   52.6250 C   0  0  1  0  0  0  0  0  0  0  0  0
    2.0500   44.0590   51.6170 N   0  0  0  0  0  0  0  0  0  0  0  0
    2.4670   45.4150   51.2120 C   0  0  0  0  0  0  0  0  0  0  0  0
    3.8440   45.7630   51.7090 C   0  0  0  0  0  0  0  0  0  0  0  0
    4.9300   45.4460   50.9440 N   0  0  0  0  0  0  0  0  0  0  0  0
    6.1630   45.7930   51.3740 C   0  0  0  0  0  0  0  0  0  0  0  0
    7.6350   45.5060   50.5810 S   0  0  0  0  0  0  0  0  0  0  0  0
    8.5110   46.2650   51.8130 C   0  0  0  0  0  0  0  0  0  0  0  0
    7.7050   46.7250   52.7940 C   0  0  0  0  0  0  0  0  0  0  0  0
    6.3550   46.4690   52.5670 C   0  0  0  0  0  0  0  0  0  0  0  0
    5.2450   46.7950   53.3420 C   0  0  0  0  0  0  0  0  0  0  0  0
    5.3740   47.4130   54.4330 O   0  0  0  0  0  0  0  0  0  0  0  0
    4.0050   46.4370   52.8940 N   0  0  0  0  0  0  0  0  0  0  0  0
    8.4540   47.4030   53.8700 C   0  0  0  0  0  0  0  0  0  0  0  0
    9.9270   47.2880   53.3930 C   0  0  0  0  0  0  0  0  0  0  0  0
    9.9390   46.5410   52.0350 C   0  0  0  0  0  0  0  0  0  0  0  0
   -0.3670   44.3180   51.9880 C   0  0  0  0  0  0  0  0  0  0  0  0
   -1.1690   45.4260   52.2300 C   0  0  0  0  0  0  0  0  0  0  0  0
   -2.3510   45.4190   51.4800 C   0  0  0  0  0  0  0  0  0  0  0  0
   -3.6550   46.8080   51.5840 Br  0  0  0  0  0  0  0  0  0  0  0  0
   -2.4880   44.3140   50.6510 C   0  0  0  0  0  0  0  0  0  0  0  0
   -1.1300   43.3410   50.8480 S   0  0  0  0  0  0  0  0  0  0  0  0
    0.9392   42.8467   54.4231 H   0  0  0  0  0  0  0  0  0  0  0  0
    0.0218   42.1517   53.0439 H   0  0  0  0  0  0  0  0  0  0  0  0
    1.8174   42.1028   53.0439 H   0  0  0  0  0  0  0  0  0  0  0  0
    1.1789   44.8468   53.3546 H   0  0  0  0  0  0  0  0  0  0  0  0
    2.8880   43.5690   52.0110 H   0  0  0  0  0  0  0  0  0  0  0  0
    2.4626   45.4728   50.1135 H   0  0  0  0  0  0  0  0  0  0  0  0
    1.7591   46.1306   51.6556 H   0  0  0  0  0  0  0  0  0  0  0  0
    3.1660   46.6820   53.4670 H   0  0  0  0  0  0  0  0  0  0  0  0
    8.1488   48.4558   53.9619 H   0  0  0  0  0  0  0  0  0  0  0  0
    8.2832   46.9615   54.8629 H   0  0  0  0  0  0  0  0  0  0  0  0
   10.3579   48.2925   53.2693 H   0  0  0  0  0  0  0  0  0  0  0  0
   10.5249   46.7380   54.1347 H   0  0  0  0  0  0  0  0  0  0  0  0
   10.3506   47.1750   51.2358 H   0  0  0  0  0  0  0  0  0  0  0  0
   10.5661   45.6372   52.0363 H   0  0  0  0  0  0  0  0  0  0  0  0
   -0.9031   46.2255   52.9372 H   0  0  0  0  0  0  0  0  0  0  0  0
   -3.3368   44.1101   49.9818 H   0  0  0  0  0  0  0  0  0  0  0  0
  1  2  1  0
  2  3  1  0
  3  4  1  0
  4  5  1  0
  5  6  2  0
  6  7  1  0
  7  8  1  0
  8  9  1  0
  9 10  2  0
 10 11  1  0
 11 12  1  0
 12 13  2  0
 12 14  1  0
 10 15  1  0
 15 16  1  0
 16 17  1  0
  2 18  1  0
 18 19  2  0
 19 20  1  0
 20 21  1  0
 20 22  2  0
 22 23  1  0
 14  5  1  0
 23 18  1  0
 11  7  2  0
 17  9  1  0
  1 24  1  0
  1 25  1  0
  1 26  1  0
  2 27  1  1
  3 28  1  0
  4 29  1  0
  4 30  1  0
 14 31  1  0
 15 32  1  0
 15 33  1  0
 16 34  1  0
 16 35  1  0
 17 36  1  0
 17 37  1  0
 19 38  1  0
 22 39  1  0
M  END
>  <meeko>  (4) 
{"is_sidechain": [false], "free_energy": -7.956, "intermolecular_energy": -9.922, "internal_energy": -0.36}

$$$$
ligand_21_conformer_1_docked
     RDKit          3D

 39 42  0  0  0  0  0  0  0  0999 V2000
    0.7960   45.6670   57.4700 C   0  0  0  0  0  0  0  0  0  0  0  0
    1.1420   45.6270   55.9780 C   0  0  1  0  0  0  0  0  0  0  0  0
    2.4260   44.9250   55.7810 N   0  0  0  0  0  0  0  0  0  0  0  0
    3.5100   45.8020   55.3020 C   0  0  0  0  0  0  0  0  0  0  0  0
    4.1630   45.2760   54.0530 C   0  0  0  0  0  0  0  0  0  0  0  0
    5.2390   45.9380   53.5320 N   0  0  0  0  0  0  0  0  0  0  0  0
    5.8480   45.4430   52.4310 C   0  0  0  0  0  0  0  0  0  0  0  0
    7.1940   46.0960   51.6320 S   0  0  0  0  0  0  0  0  0  0  0  0
    7.1930   44.8490   50.4900 C   0  0  0  0  0  0  0  0  0  0  0  0
    6.1990   43.9620   50.7150 C   0  0  0  0  0  0  0  0  0  0  0  0
    5.4140   44.2780   51.8210 C   0  0  0  0  0  0  0  0  0  0  0  0
    4.3210   43.6030   52.3580 C   0  0  0  0  0  0  0  0  0  0  0  0
    3.8950   42.5380   51.8360 O   0  0  0  0  0  0  0  0  0  0  0  0
    3.7160   44.1170   53.4700 N   0  0  0  0  0  0  0  0  0  0  0  0
    6.1930   42.8590   49.7340 C   0  0  0  0  0  0  0  0  0  0  0  0
    7.3910   43.2090   48.8110 C   0  0  0  0  0  0  0  0  0  0  0  0
    8.0360   44.5190   49.3310 C   0  0  0  0  0  0  0  0  0  0  0  0
    0.0310   44.9430   55.2250 C   0  0  0  0  0  0  0  0  0  0  0  0
    0.1720   44.2510   54.0290 C   0  0  0  0  0  0  0  0  0  0  0  0
   -1.0310   43.7020   53.5700 C   0  0  0  0  0  0  0  0  0  0  0  0
   -1.1620   42.6890   51.9590 Br  0  0  0  0  0  0  0  0  0  0  0  0
   -2.1200   43.9580   54.3930 C   0  0  0  0  0  0  0  0  0  0  0  0
   -1.5830   44.8690   55.7010 S   0  0  0  0  0  0  0  0  0  0  0  0
    1.7165   45.5606   58.0628 H   0  0  0  0  0  0  0  0  0  0  0  0
    0.3147   46.6268   57.7092 H   0  0  0  0  0  0  0  0  0  0  0  0
    0.1084   44.8424   57.7092 H   0  0  0  0  0  0  0  0  0  0  0  0
    1.2484   46.6515   55.5918 H   0  0  0  0  0  0  0  0  0  0  0  0
    2.7280   44.5080   56.6930 H   0  0  0  0  0  0  0  0  0  0  0  0
    3.0918   46.7970   55.0899 H   0  0  0  0  0  0  0  0  0  0  0  0
    4.2776   45.8470   56.0886 H   0  0  0  0  0  0  0  0  0  0  0  0
    2.8980   43.6140   53.8830 H   0  0  0  0  0  0  0  0  0  0  0  0
    6.3451   41.8885   50.2289 H   0  0  0  0  0  0  0  0  0  0  0  0
    5.2403   42.7648   49.1922 H   0  0  0  0  0  0  0  0  0  0  0  0
    8.1302   42.3947   48.8353 H   0  0  0  0  0  0  0  0  0  0  0  0
    7.0467   43.3402   47.7746 H   0  0  0  0  0  0  0  0  0  0  0  0
    9.0810   44.3552   49.6330 H   0  0  0  0  0  0  0  0  0  0  0  0
    8.0769   45.3180   48.5761 H   0  0  0  0  0  0  0  0  0  0  0  0
    1.1294   44.1454   53.4978 H   0  0  0  0  0  0  0  0  0  0  0  0
   -3.1534   43.6234   54.2197 H   0  0  0  0  0  0  0  0  0  0  0  0
  1  2  1  0
  2  3  1  0
  3  4  1  0
  4  5  1  0
  5  6  2  0
  6  7  1  0
  7  8  1  0
  8  9  1  0
  9 10  2  0
 10 11  1  0
 11 12  1  0
 12 13  2  0
 12 14  1  0
 10 15  1  0
 15 16  1  0
 16 17  1  0
  2 18  1  0
 18 19  2  0
 19 20  1  0
 20 21  1  0
 20 22  2  0
 22 23  1  0
 14  5  1  0
 23 18  1  0
 11  7  2  0
 17  9  1  0
  1 24  1  0
  1 25  1  0
  1 26  1  0
  2 27  1  6
  3 28  1  0
  4 29  1  0
  4 30  1  0
 14 31  1  0
 15 32  1  0
 15 33  1  0
 16 34  1  0
 16 35  1  0
 17 36  1  0
 17 37  1  0
 19 38  1  0
 22 39  1  0
M  END
>  <meeko>  (5) 
{"is_sidechain": [false], "free_energy": -7.776, "intermolecular_energy": -9.586, "internal_energy": -0.473}

$$$$
