ligand_86_conformer_3_docked
     RDKit          3D

 44 47  0  0  0  0  0  0  0  0999 V2000
    2.2760   44.9220   55.6040 O   0  0  0  0  0  0  0  0  0  0  0  0
    1.6300   45.2140   54.5600 C   0  0  0  0  0  0  0  0  0  0  0  0
    0.2010   45.3560   54.6250 N   0  0  0  0  0  0  0  0  0  0  0  0
   -0.5670   44.9410   55.8030 C   0  0  0  0  0  0  0  0  0  0  0  0
   -1.5650   43.8250   55.4310 C   0  0  0  0  0  0  0  0  0  0  0  0
   -2.7350   43.7530   56.4300 C   0  0  0  0  0  0  0  0  0  0  0  0
   -2.3550   44.2770   57.6880 O   0  0  0  0  0  0  0  0  0  0  0  0
   -2.1970   45.6850   57.6040 C   0  0  0  0  0  0  0  0  0  0  0  0
   -1.3180   46.1350   56.4130 C   0  0  0  0  0  0  0  0  0  0  0  0
    2.3630   45.4290   53.2890 C   0  0  0  0  0  0  0  0  0  0  0  0
    1.6680   45.4820   52.0710 C   0  0  0  0  0  0  0  0  0  0  0  0
    2.3380   45.6830   50.9070 N   0  0  0  0  0  0  0  0  0  0  0  0
    3.6850   45.8500   50.8720 C   0  0  0  0  0  0  0  0  0  0  0  0
    4.4340   45.8200   52.0590 C   0  0  0  0  0  0  0  0  0  0  0  0
    5.9070   46.0080   52.0350 C   0  0  0  0  0  0  0  0  0  0  0  0
    6.6560   45.6810   50.8760 C   0  0  0  0  0  0  0  0  0  0  0  0
    8.0490   45.8590   50.8510 C   0  0  0  0  0  0  0  0  0  0  0  0
    8.6710   46.3640   51.9880 C   0  0  0  0  0  0  0  0  0  0  0  0
    7.9650   46.6840   53.1100 C   0  0  0  0  0  0  0  0  0  0  0  0
    6.5810   46.5190   53.1690 C   0  0  0  0  0  0  0  0  0  0  0  0
    8.8860   47.1900   54.1600 C   0  0  0  0  0  0  0  0  0  0  0  0
   10.2660   47.1190   53.4620 C   0  0  0  0  0  0  0  0  0  0  0  0
   10.0160   46.6040   52.1540 O   0  0  0  0  0  0  0  0  0  0  0  0
    3.7550   45.6110   53.2710 C   0  0  0  0  0  0  0  0  0  0  0  0
   -0.2960   45.8320   53.8380 H   0  0  0  0  0  0  0  0  0  0  0  0
    0.1396   44.5523   56.5510 H   0  0  0  0  0  0  0  0  0  0  0  0
   -1.9656   44.0250   54.4262 H   0  0  0  0  0  0  0  0  0  0  0  0
   -1.0310   42.8637   55.4575 H   0  0  0  0  0  0  0  0  0  0  0  0
   -3.5809   44.3361   56.0372 H   0  0  0  0  0  0  0  0  0  0  0  0
   -3.0233   42.6994   56.5597 H   0  0  0  0  0  0  0  0  0  0  0  0
   -3.1918   46.1416   57.4951 H   0  0  0  0  0  0  0  0  0  0  0  0
   -1.6886   46.0100   58.5237 H   0  0  0  0  0  0  0  0  0  0  0  0
   -1.9596   46.5882   55.6430 H   0  0  0  0  0  0  0  0  0  0  0  0
   -0.5802   46.8651   56.7772 H   0  0  0  0  0  0  0  0  0  0  0  0
    0.5748   45.3601   52.0591 H   0  0  0  0  0  0  0  0  0  0  0  0
    4.1919   46.0096   49.9089 H   0  0  0  0  0  0  0  0  0  0  0  0
    6.1413   45.2843   49.9885 H   0  0  0  0  0  0  0  0  0  0  0  0
    8.6336   45.6053   49.9544 H   0  0  0  0  0  0  0  0  0  0  0  0
    6.0240   46.7814   54.0805 H   0  0  0  0  0  0  0  0  0  0  0  0
    8.6366   48.2235   54.4424 H   0  0  0  0  0  0  0  0  0  0  0  0
    8.8395   46.6151   55.0966 H   0  0  0  0  0  0  0  0  0  0  0  0
   10.7153   48.1211   53.3994 H   0  0  0  0  0  0  0  0  0  0  0  0
   10.9687   46.4824   54.0196 H   0  0  0  0  0  0  0  0  0  0  0  0
    4.3194   45.5897   54.2149 H   0  0  0  0  0  0  0  0  0  0  0  0
  1  2  2  0
  2  3  1  0
  3  4  1  0
  4  5  1  0
  5  6  1  0
  6  7  1  0
  7  8  1  0
  8  9  1  0
  2 10  1  0
 10 11  2  0
 11 12  1  0
 12 13  2  0
 13 14  1  0
 14 15  1  0
 15 16  2  0
 16 17  1  0
 17 18  2  0
 18 19  1  0
 19 20  2  0
 19 21  1  0
 21 22  1  0
 22 23  1  0
 14 24  2  0
  9  4  1  0
 24 10  1  0
 20 15  1  0
 23 18  1  0
  3 25  1  0
  4 26  1  0
  5 27  1  0
  5 28  1  0
  6 29  1  0
  6 30  1  0
  8 31  1  0
  8 32  1  0
  9 33  1  0
  9 34  1  0
 11 35  1  0
 13 36  1  0
 16 37  1  0
 17 38  1  0
 20 39  1  0
 21 40  1  0
 21 41  1  0
 22 42  1  0
 22 43  1  0
 24 44  1  0
M  END
>  <meeko>  (1) 
{"is_sidechain": [false], "free_energy": -8.613, "intermolecular_energy": -10.124, "internal_energy": -0.572}

$$$$
ligand_86_conformer_3_docked
     RDKit          3D

 44 47  0  0  0  0  0  0  0  0999 V2000
    5.6220   41.1950   48.9630 O   0  0  0  0  0  0  0  0  0  0  0  0
    4.4080   41.2390   49.3040 C   0  0  0  0  0  0  0  0  0  0  0  0
    3.4370   40.4700   48.5740 N   0  0  0  0  0  0  0  0  0  0  0  0
    3.7600   39.8200   47.3000 C   0  0  0  0  0  0  0  0  0  0  0  0
    3.5690   40.8060   46.1290 C   0  0  0  0  0  0  0  0  0  0  0  0
    3.3450   40.0680   44.7960 C   0  0  0  0  0  0  0  0  0  0  0  0
    3.9140   38.7740   44.8360 O   0  0  0  0  0  0  0  0  0  0  0  0
    3.1640   37.9360   45.7030 C   0  0  0  0  0  0  0  0  0  0  0  0
    2.8860   38.5740   47.0850 C   0  0  0  0  0  0  0  0  0  0  0  0
    4.0100   42.0670   50.4680 C   0  0  0  0  0  0  0  0  0  0  0  0
    2.7350   41.9250   51.0350 C   0  0  0  0  0  0  0  0  0  0  0  0
    2.3710   42.6790   52.1040 N   0  0  0  0  0  0  0  0  0  0  0  0
    3.2150   43.5820   52.6680 C   0  0  0  0  0  0  0  0  0  0  0  0
    4.5090   43.7600   52.1530 C   0  0  0  0  0  0  0  0  0  0  0  0
    5.4440   44.7380   52.7650 C   0  0  0  0  0  0  0  0  0  0  0  0
    5.3960   45.0060   54.1570 C   0  0  0  0  0  0  0  0  0  0  0  0
    6.2800   45.9300   54.7380 C   0  0  0  0  0  0  0  0  0  0  0  0
    7.2000   46.5720   53.9150 C   0  0  0  0  0  0  0  0  0  0  0  0
    7.2590   46.3240   52.5760 C   0  0  0  0  0  0  0  0  0  0  0  0
    6.3960   45.4130   51.9660 C   0  0  0  0  0  0  0  0  0  0  0  0
    8.3270   47.1500   51.9560 C   0  0  0  0  0  0  0  0  0  0  0  0
    8.8950   47.9320   53.1650 C   0  0  0  0  0  0  0  0  0  0  0  0
    8.1390   47.5030   54.2980 O   0  0  0  0  0  0  0  0  0  0  0  0
    4.8990   42.9870   51.0470 C   0  0  0  0  0  0  0  0  0  0  0  0
    2.4960   40.3110   48.9990 H   0  0  0  0  0  0  0  0  0  0  0  0
    4.8137   39.5062   47.3347 H   0  0  0  0  0  0  0  0  0  0  0  0
    2.6952   41.4412   46.3364 H   0  0  0  0  0  0  0  0  0  0  0  0
    4.4827   41.4116   46.0372 H   0  0  0  0  0  0  0  0  0  0  0  0
    2.2645   39.9811   44.6092 H   0  0  0  0  0  0  0  0  0  0  0  0
    3.8283   40.6407   43.9907 H   0  0  0  0  0  0  0  0  0  0  0  0
    2.2004   37.7106   45.2227 H   0  0  0  0  0  0  0  0  0  0  0  0
    3.7631   37.0302   45.8779 H   0  0  0  0  0  0  0  0  0  0  0  0
    1.8263   38.8634   47.1414 H   0  0  0  0  0  0  0  0  0  0  0  0
    3.1255   37.8378   47.8664 H   0  0  0  0  0  0  0  0  0  0  0  0
    2.0259   41.1987   50.6112 H   0  0  0  0  0  0  0  0  0  0  0  0
    2.8831   44.1764   53.5320 H   0  0  0  0  0  0  0  0  0  0  0  0
    4.6598   44.4855   54.7872 H   0  0  0  0  0  0  0  0  0  0  0  0
    6.2458   46.1409   55.8171 H   0  0  0  0  0  0  0  0  0  0  0  0
    6.4549   45.2233   50.8841 H   0  0  0  0  0  0  0  0  0  0  0  0
    9.0995   46.5180   51.4936 H   0  0  0  0  0  0  0  0  0  0  0  0
    7.9626   47.8002   51.1470 H   0  0  0  0  0  0  0  0  0  0  0  0
    9.9607   47.6985   53.3053 H   0  0  0  0  0  0  0  0  0  0  0  0
    8.8176   49.0191   53.0156 H   0  0  0  0  0  0  0  0  0  0  0  0
    5.9104   43.1034   50.6304 H   0  0  0  0  0  0  0  0  0  0  0  0
  1  2  2  0
  2  3  1  0
  3  4  1  0
  4  5  1  0
  5  6  1  0
  6  7  1  0
  7  8  1  0
  8  9  1  0
  2 10  1  0
 10 11  2  0
 11 12  1  0
 12 13  2  0
 13 14  1  0
 14 15  1  0
 15 16  2  0
 16 17  1  0
 17 18  2  0
 18 19  1  0
 19 20  2  0
 19 21  1  0
 21 22  1  0
 22 23  1  0
 14 24  2  0
  9  4  1  0
 24 10  1  0
 20 15  1  0
 23 18  1  0
  3 25  1  0
  4 26  1  0
  5 27  1  0
  5 28  1  0
  6 29  1  0
  6 30  1  0
  8 31  1  0
  8 32  1  0
  9 33  1  0
  9 34  1  0
 11 35  1  0
 13 36  1  0
 16 37  1  0
 17 38  1  0
 20 39  1  0
 21 40  1  0
 21 41  1  0
 22 42  1  0
 22 43  1  0
 24 44  1  0
M  END
>  <meeko>  (2) 
{"is_sidechain": [false], "free_energy": -8.336, "intermolecular_energy": -9.796, "internal_energy": -0.573}

$$$$
ligand_86_conformer_3_docked
     RDKit          3D

 44 47  0  0  0  0  0  0  0  0999 V2000
    1.6230   43.0900   50.6530 O   0  0  0  0  0  0  0  0  0  0  0  0
    1.2120   44.1400   51.2190 C   0  0  0  0  0  0  0  0  0  0  0  0
   -0.1980   44.3280   51.4280 N   0  0  0  0  0  0  0  0  0  0  0  0
   -1.1990   43.4620   50.7980 C   0  0  0  0  0  0  0  0  0  0  0  0
   -2.3150   44.3080   50.1520 C   0  0  0  0  0  0  0  0  0  0  0  0
   -3.6160   43.5010   49.9880 C   0  0  0  0  0  0  0  0  0  0  0  0
   -3.3430   42.1150   49.9160 O   0  0  0  0  0  0  0  0  0  0  0  0
   -2.9200   41.6330   51.1830 C   0  0  0  0  0  0  0  0  0  0  0  0
   -1.8030   42.4900   51.8240 C   0  0  0  0  0  0  0  0  0  0  0  0
    2.1950   45.1500   51.6790 C   0  0  0  0  0  0  0  0  0  0  0  0
    1.7760   46.2530   52.4370 C   0  0  0  0  0  0  0  0  0  0  0  0
    2.6760   47.1770   52.8620 N   0  0  0  0  0  0  0  0  0  0  0  0
    4.0010   47.0680   52.5870 C   0  0  0  0  0  0  0  0  0  0  0  0
    4.4840   45.9790   51.8450 C   0  0  0  0  0  0  0  0  0  0  0  0
    5.9330   45.8450   51.5440 C   0  0  0  0  0  0  0  0  0  0  0  0
    6.3700   45.0750   50.4350 C   0  0  0  0  0  0  0  0  0  0  0  0
    7.7390   44.9480   50.1480 C   0  0  0  0  0  0  0  0  0  0  0  0
    8.6500   45.5950   50.9770 C   0  0  0  0  0  0  0  0  0  0  0  0
    8.2460   46.3390   52.0450 C   0  0  0  0  0  0  0  0  0  0  0  0
    6.8940   46.4860   52.3590 C   0  0  0  0  0  0  0  0  0  0  0  0
    9.4290   46.9030   52.7460 C   0  0  0  0  0  0  0  0  0  0  0  0
   10.6100   46.3650   51.9010 C   0  0  0  0  0  0  0  0  0  0  0  0
   10.0220   45.5860   50.8590 O   0  0  0  0  0  0  0  0  0  0  0  0
    3.5640   45.0170   51.3960 C   0  0  0  0  0  0  0  0  0  0  0  0
   -0.5140   45.0600   52.1040 H   0  0  0  0  0  0  0  0  0  0  0  0
   -0.6976   42.8760   50.0137 H   0  0  0  0  0  0  0  0  0  0  0  0
   -2.5150   45.1817   50.7897 H   0  0  0  0  0  0  0  0  0  0  0  0
   -1.9756   44.6197   49.1532 H   0  0  0  0  0  0  0  0  0  0  0  0
   -4.2715   43.6949   50.8498 H   0  0  0  0  0  0  0  0  0  0  0  0
   -4.1078   43.8119   49.0545 H   0  0  0  0  0  0  0  0  0  0  0  0
   -3.7865   41.6260   51.8606 H   0  0  0  0  0  0  0  0  0  0  0  0
   -2.5071   40.6256   51.0261 H   0  0  0  0  0  0  0  0  0  0  0  0
   -2.2263   43.0662   52.6599 H   0  0  0  0  0  0  0  0  0  0  0  0
   -1.0081   41.8194   52.1825 H   0  0  0  0  0  0  0  0  0  0  0  0
    0.7117   46.3705   52.6889 H   0  0  0  0  0  0  0  0  0  0  0  0
    4.6997   47.8373   52.9476 H   0  0  0  0  0  0  0  0  0  0  0  0
    5.6299   44.5731   49.7944 H   0  0  0  0  0  0  0  0  0  0  0  0
    8.0823   44.3521   49.2895 H   0  0  0  0  0  0  0  0  0  0  0  0
    6.5821   47.0893   53.2243 H   0  0  0  0  0  0  0  0  0  0  0  0
    9.4062   48.0028   52.7418 H   0  0  0  0  0  0  0  0  0  0  0  0
    9.4852   46.6194   53.8073 H   0  0  0  0  0  0  0  0  0  0  0  0
   11.1876   47.1990   51.4759 H   0  0  0  0  0  0  0  0  0  0  0  0
   11.3035   45.7669   52.5104 H   0  0  0  0  0  0  0  0  0  0  0  0
    3.9193   44.1515   50.8174 H   0  0  0  0  0  0  0  0  0  0  0  0
  1  2  2  0
  2  3  1  0
  3  4  1  0
  4  5  1  0
  5  6  1  0
  6  7  1  0
  7  8  1  0
  8  9  1  0
  2 10  1  0
 10 11  2  0
 11 12  1  0
 12 13  2  0
 13 14  1  0
 14 15  1  0
 15 16  2  0
 16 17  1  0
 17 18  2  0
 18 19  1  0
 19 20  2  0
 19 21  1  0
 21 22  1  0
 22 23  1  0
 14 24  2  0
  9  4  1  0
 24 10  1  0
 20 15  1  0
 23 18  1  0
  3 25  1  0
  4 26  1  0
  5 27  1  0
  5 28  1  0
  6 29  1  0
  6 30  1  0
  8 31  1  0
  8 32  1  0
  9 33  1  0
  9 34  1  0
 11 35  1  0
 13 36  1  0
 16 37  1  0
 17 38  1  0
 20 39  1  0
 21 40  1  0
 21 41  1  0
 22 42  1  0
 22 43  1  0
 24 44  1  0
M  END
>  <meeko>  (3) 
{"is_sidechain": [false], "free_energy": -8.277, "intermolecular_energy": -9.736, "internal_energy": -0.565}

$$$$
ligand_86_conformer_3_docked
     RDKit          3D

 44 47  0  0  0  0  0  0  0  0999 V2000
    6.2150   44.1510   51.0850 O   0  0  0  0  0  0  0  0  0  0  0  0
    5.4800   44.6020   52.0060 C   0  0  0  0  0  0  0  0  0  0  0  0
    5.9690   45.6540   52.8550 N   0  0  0  0  0  0  0  0  0  0  0  0
    7.3770   46.0640   52.8500 C   0  0  0  0  0  0  0  0  0  0  0  0
    7.7490   46.7290   54.1910 C   0  0  0  0  0  0  0  0  0  0  0  0
    8.9760   47.6480   54.0480 C   0  0  0  0  0  0  0  0  0  0  0  0
    9.7810   47.2460   52.9570 O   0  0  0  0  0  0  0  0  0  0  0  0
    9.1230   47.5310   51.7320 C   0  0  0  0  0  0  0  0  0  0  0  0
    7.6600   47.0290   51.6890 C   0  0  0  0  0  0  0  0  0  0  0  0
    4.1140   44.0510   52.1790 C   0  0  0  0  0  0  0  0  0  0  0  0
    3.6130   43.1030   51.2750 C   0  0  0  0  0  0  0  0  0  0  0  0
    2.3640   42.5940   51.4360 N   0  0  0  0  0  0  0  0  0  0  0  0
    1.5640   42.9660   52.4670 C   0  0  0  0  0  0  0  0  0  0  0  0
    2.0140   43.9010   53.4130 C   0  0  0  0  0  0  0  0  0  0  0  0
    1.1510   44.3100   54.5500 C   0  0  0  0  0  0  0  0  0  0  0  0
    1.7040   44.9890   55.6660 C   0  0  0  0  0  0  0  0  0  0  0  0
    0.8890   45.3780   56.7430 C   0  0  0  0  0  0  0  0  0  0  0  0
   -0.4690   45.0800   56.6840 C   0  0  0  0  0  0  0  0  0  0  0  0
   -1.0150   44.4300   55.6180 C   0  0  0  0  0  0  0  0  0  0  0  0
   -0.2350   44.0290   54.5330 C   0  0  0  0  0  0  0  0  0  0  0  0
   -2.4740   44.2450   55.8320 C   0  0  0  0  0  0  0  0  0  0  0  0
   -2.6990   44.9070   57.2130 C   0  0  0  0  0  0  0  0  0  0  0  0
   -1.4190   45.3760   57.6350 O   0  0  0  0  0  0  0  0  0  0  0  0
    3.3030   44.4370   53.2590 C   0  0  0  0  0  0  0  0  0  0  0  0
    5.2870   46.1870   53.4410 H   0  0  0  0  0  0  0  0  0  0  0  0
    7.9943   45.1636   52.7149 H   0  0  0  0  0  0  0  0  0  0  0  0
    6.8947   47.3265   54.5420 H   0  0  0  0  0  0  0  0  0  0  0  0
    7.9963   45.9352   54.9112 H   0  0  0  0  0  0  0  0  0  0  0  0
    8.6355   48.6809   53.8834 H   0  0  0  0  0  0  0  0  0  0  0  0
    9.5736   47.5836   54.9693 H   0  0  0  0  0  0  0  0  0  0  0  0
    9.1223   48.6207   51.5819 H   0  0  0  0  0  0  0  0  0  0  0  0
    9.6712   47.0023   50.9383 H   0  0  0  0  0  0  0  0  0  0  0  0
    6.9811   47.8913   51.7638 H   0  0  0  0  0  0  0  0  0  0  0  0
    7.4996   46.4947   50.7410 H   0  0  0  0  0  0  0  0  0  0  0  0
    4.2349   42.7699   50.4310 H   0  0  0  0  0  0  0  0  0  0  0  0
    0.5574   42.5327   52.5622 H   0  0  0  0  0  0  0  0  0  0  0  0
    2.7807   45.2132   55.6887 H   0  0  0  0  0  0  0  0  0  0  0  0
    1.3138   45.9045   57.6104 H   0  0  0  0  0  0  0  0  0  0  0  0
   -0.6896   43.5039   53.6800 H   0  0  0  0  0  0  0  0  0  0  0  0
   -3.0576   44.7514   55.0490 H   0  0  0  0  0  0  0  0  0  0  0  0
   -2.7919   43.1926   55.7942 H   0  0  0  0  0  0  0  0  0  0  0  0
   -3.4041   45.7467   57.1245 H   0  0  0  0  0  0  0  0  0  0  0  0
   -3.1277   44.1974   57.9360 H   0  0  0  0  0  0  0  0  0  0  0  0
    3.6810   45.1659   53.9910 H   0  0  0  0  0  0  0  0  0  0  0  0
  1  2  2  0
  2  3  1  0
  3  4  1  0
  4  5  1  0
  5  6  1  0
  6  7  1  0
  7  8  1  0
  8  9  1  0
  2 10  1  0
 10 11  2  0
 11 12  1  0
 12 13  2  0
 13 14  1  0
 14 15  1  0
 15 16  2  0
 16 17  1  0
 17 18  2  0
 18 19  1  0
 19 20  2  0
 19 21  1  0
 21 22  1  0
 22 23  1  0
 14 24  2  0
  9  4  1  0
 24 10  1  0
 20 15  1  0
 23 18  1  0
  3 25  1  0
  4 26  1  0
  5 27  1  0
  5 28  1  0
  6 29  1  0
  6 30  1  0
  8 31  1  0
  8 32  1  0
  9 33  1  0
  9 34  1  0
 11 35  1  0
 13 36  1  0
 16 37  1  0
 17 38  1  0
 20 39  1  0
 21 40  1  0
 21 41  1  0
 22 42  1  0
 22 43  1  0
 24 44  1  0
M  END
>  <meeko>  (4) 
{"is_sidechain": [false], "free_energy": -8.163, "intermolecular_energy": -9.658, "internal_energy": -0.509}

$$$$
