ligand_0_conformer_4_docked
     RDKit          3D

 45 48  0  0  0  0  0  0  0  0999 V2000
    7.2330   42.6110   49.4440 C   0  0  0  0  0  0  0  0  0  0  0  0
    6.7650   43.8770   49.8050 C   0  0  0  0  0  0  0  0  0  0  0  0
    5.5670   44.0050   50.5130 C   0  0  0  0  0  0  0  0  0  0  0  0
    4.8350   42.8610   50.8820 C   0  0  0  0  0  0  0  0  0  0  0  0
    3.6210   42.9680   51.6400 N   0  0  0  0  0  0  0  0  0  0  0  0
    3.4860   43.8140   52.7910 C   0  0  0  0  0  0  0  0  0  0  0  0
    4.5710   44.5030   53.2750 N   0  0  0  0  0  0  0  0  0  0  0  0
    4.4910   45.2820   54.3930 C   0  0  0  0  0  0  0  0  0  0  0  0
    5.5990   45.9830   54.8830 O   0  0  0  0  0  0  0  0  0  0  0  0
    6.9160   45.8590   54.3440 C   0  0  0  0  0  0  0  0  0  0  0  0
    7.4050   47.2000   53.7520 C   0  0  0  0  0  0  0  0  0  0  0  0
    7.4160   47.1690   52.2080 C   0  0  0  0  0  0  0  0  0  0  0  0
    8.5720   46.3270   51.6480 C   0  0  0  0  0  0  0  0  0  0  0  0
    9.9210   46.8150   52.1870 C   0  0  0  0  0  0  0  0  0  0  0  0
    9.9370   46.8080   53.7180 C   0  0  0  0  0  0  0  0  0  0  0  0
    8.7840   47.6440   54.2910 C   0  0  0  0  0  0  0  0  0  0  0  0
    3.2610   45.3500   55.0300 C   0  0  0  0  0  0  0  0  0  0  0  0
    2.8950   46.0180   56.1300 N   0  0  0  0  0  0  0  0  0  0  0  0
    1.5840   45.6990   56.2760 C   0  0  0  0  0  0  0  0  0  0  0  0
    1.1140   44.8580   55.3150 N   0  0  0  0  0  0  0  0  0  0  0  0
    2.2010   44.6630   54.5490 C   0  0  0  0  0  0  0  0  0  0  0  0
    2.2840   43.8880   53.4410 N   0  0  0  0  0  0  0  0  0  0  0  0
    5.2980   41.5960   50.4900 C   0  0  0  0  0  0  0  0  0  0  0  0
    6.4970   41.4710   49.7810 C   0  0  0  0  0  0  0  0  0  0  0  0
    8.1807   42.5111   48.8945 H   0  0  0  0  0  0  0  0  0  0  0  0
    7.3402   44.7739   49.5316 H   0  0  0  0  0  0  0  0  0  0  0  0
    5.1945   45.0042   50.7830 H   0  0  0  0  0  0  0  0  0  0  0  0
    2.8500   42.2900   51.4410 H   0  0  0  0  0  0  0  0  0  0  0  0
    7.6036   45.5479   55.1443 H   0  0  0  0  0  0  0  0  0  0  0  0
    6.8942   45.1097   53.5390 H   0  0  0  0  0  0  0  0  0  0  0  0
    6.6755   47.9519   54.0874 H   0  0  0  0  0  0  0  0  0  0  0  0
    6.4652   46.7420   51.8564 H   0  0  0  0  0  0  0  0  0  0  0  0
    7.5499   48.2013   51.8526 H   0  0  0  0  0  0  0  0  0  0  0  0
    8.4265   45.2768   51.9412 H   0  0  0  0  0  0  0  0  0  0  0  0
    8.5772   46.4251   50.5524 H   0  0  0  0  0  0  0  0  0  0  0  0
   10.7171   46.1526   51.8162 H   0  0  0  0  0  0  0  0  0  0  0  0
   10.0839   47.8461   51.8402 H   0  0  0  0  0  0  0  0  0  0  0  0
    9.8389   45.7714   54.0728 H   0  0  0  0  0  0  0  0  0  0  0  0
   10.8867   47.2470   54.0576 H   0  0  0  0  0  0  0  0  0  0  0  0
    8.7843   47.5412   55.3862 H   0  0  0  0  0  0  0  0  0  0  0  0
    8.9428   48.6878   53.9823 H   0  0  0  0  0  0  0  0  0  0  0  0
    3.4790   46.6360   56.7360 H   0  0  0  0  0  0  0  0  0  0  0  0
    0.9593   46.0845   57.0952 H   0  0  0  0  0  0  0  0  0  0  0  0
    4.7149   40.6978   50.7416 H   0  0  0  0  0  0  0  0  0  0  0  0
    6.8612   40.4752   49.4883 H   0  0  0  0  0  0  0  0  0  0  0  0
  1  2  2  0
  2  3  1  0
  3  4  2  0
  4  5  1  0
  5  6  1  0
  6  7  2  0
  7  8  1  0
  8  9  1  0
  9 10  1  0
 10 11  1  0
 11 12  1  0
 12 13  1  0
 13 14  1  0
 14 15  1  0
 15 16  1  0
  8 17  2  0
 17 18  1  0
 18 19  1  0
 19 20  2  0
 20 21  1  0
 21 22  2  0
  4 23  1  0
 23 24  2  0
 24  1  1  0
 22  6  1  0
 16 11  1  0
 21 17  1  0
  1 25  1  0
  2 26  1  0
  3 27  1  0
  5 28  1  0
 10 29  1  0
 10 30  1  0
 11 31  1  0
 12 32  1  0
 12 33  1  0
 13 34  1  0
 13 35  1  0
 14 36  1  0
 14 37  1  0
 15 38  1  0
 15 39  1  0
 16 40  1  0
 16 41  1  0
 18 42  1  0
 19 43  1  0
 23 44  1  0
 24 45  1  0
M  END
>  <meeko>  (1) 
{"is_sidechain": [false], "free_energy": -9.673, "intermolecular_energy": -12.501, "internal_energy": -0.55}

$$$$
ligand_0_conformer_4_docked
     RDKit          3D

 45 48  0  0  0  0  0  0  0  0999 V2000
    9.4020   47.6240   53.3870 C   0  0  0  0  0  0  0  0  0  0  0  0
    8.3200   48.0940   52.6400 C   0  0  0  0  0  0  0  0  0  0  0  0
    7.8620   47.3690   51.5360 C   0  0  0  0  0  0  0  0  0  0  0  0
    8.4770   46.1530   51.1830 C   0  0  0  0  0  0  0  0  0  0  0  0
    8.0010   45.3740   50.0750 N   0  0  0  0  0  0  0  0  0  0  0  0
    6.9570   44.3970   50.1940 C   0  0  0  0  0  0  0  0  0  0  0  0
    6.0980   44.4280   51.2650 N   0  0  0  0  0  0  0  0  0  0  0  0
    5.1210   43.4890   51.4330 C   0  0  0  0  0  0  0  0  0  0  0  0
    4.2480   43.5240   52.5270 O   0  0  0  0  0  0  0  0  0  0  0  0
    3.5930   44.7110   52.9800 C   0  0  0  0  0  0  0  0  0  0  0  0
    3.8530   44.9500   54.4840 C   0  0  0  0  0  0  0  0  0  0  0  0
    3.5520   46.4110   54.8870 C   0  0  0  0  0  0  0  0  0  0  0  0
    4.6280   47.3880   54.3910 C   0  0  0  0  0  0  0  0  0  0  0  0
    6.0190   46.9710   54.8780 C   0  0  0  0  0  0  0  0  0  0  0  0
    6.3470   45.5390   54.4460 C   0  0  0  0  0  0  0  0  0  0  0  0
    5.2770   44.5520   54.9340 C   0  0  0  0  0  0  0  0  0  0  0  0
    5.0300   42.4910   50.4750 C   0  0  0  0  0  0  0  0  0  0  0  0
    4.1890   41.4550   50.3870 N   0  0  0  0  0  0  0  0  0  0  0  0
    4.5800   40.8220   49.2510 C   0  0  0  0  0  0  0  0  0  0  0  0
    5.6320   41.4190   48.6260 N   0  0  0  0  0  0  0  0  0  0  0  0
    5.8840   42.4660   49.4280 C   0  0  0  0  0  0  0  0  0  0  0  0
    6.8550   43.3980   49.2640 N   0  0  0  0  0  0  0  0  0  0  0  0
    9.5820   45.7040   51.9210 C   0  0  0  0  0  0  0  0  0  0  0  0
   10.0380   46.4330   53.0240 C   0  0  0  0  0  0  0  0  0  0  0  0
    9.7541   48.1910   54.2614 H   0  0  0  0  0  0  0  0  0  0  0  0
    7.8271   49.0365   52.9207 H   0  0  0  0  0  0  0  0  0  0  0  0
    7.0186   47.7499   50.9414 H   0  0  0  0  0  0  0  0  0  0  0  0
    8.5370   45.4070   49.1780 H   0  0  0  0  0  0  0  0  0  0  0  0
    3.9724   45.5710   52.4087 H   0  0  0  0  0  0  0  0  0  0  0  0
    2.5101   44.5927   52.8270 H   0  0  0  0  0  0  0  0  0  0  0  0
    3.1549   44.2831   55.0111 H   0  0  0  0  0  0  0  0  0  0  0  0
    2.5831   46.7039   54.4563 H   0  0  0  0  0  0  0  0  0  0  0  0
    3.5355   46.4595   55.9858 H   0  0  0  0  0  0  0  0  0  0  0  0
    4.6216   47.4012   53.2911 H   0  0  0  0  0  0  0  0  0  0  0  0
    4.4031   48.3876   54.7913 H   0  0  0  0  0  0  0  0  0  0  0  0
    6.7685   47.6551   54.4534 H   0  0  0  0  0  0  0  0  0  0  0  0
    6.0331   47.0167   55.9770 H   0  0  0  0  0  0  0  0  0  0  0  0
    6.3982   45.4985   53.3479 H   0  0  0  0  0  0  0  0  0  0  0  0
    7.3120   45.2539   54.8905 H   0  0  0  0  0  0  0  0  0  0  0  0
    5.5079   43.5546   54.5317 H   0  0  0  0  0  0  0  0  0  0  0  0
    5.2934   44.5592   56.0339 H   0  0  0  0  0  0  0  0  0  0  0  0
    3.4160   41.1910   51.0370 H   0  0  0  0  0  0  0  0  0  0  0  0
    4.0924   39.9120   48.8713 H   0  0  0  0  0  0  0  0  0  0  0  0
   10.0925   44.7738   51.6308 H   0  0  0  0  0  0  0  0  0  0  0  0
   10.8974   46.0692   53.6062 H   0  0  0  0  0  0  0  0  0  0  0  0
  1  2  2  0
  2  3  1  0
  3  4  2  0
  4  5  1  0
  5  6  1  0
  6  7  2  0
  7  8  1  0
  8  9  1  0
  9 10  1  0
 10 11  1  0
 11 12  1  0
 12 13  1  0
 13 14  1  0
 14 15  1  0
 15 16  1  0
  8 17  2  0
 17 18  1  0
 18 19  1  0
 19 20  2  0
 20 21  1  0
 21 22  2  0
  4 23  1  0
 23 24  2  0
 24  1  1  0
 22  6  1  0
 16 11  1  0
 21 17  1  0
  1 25  1  0
  2 26  1  0
  3 27  1  0
  5 28  1  0
 10 29  1  0
 10 30  1  0
 11 31  1  0
 12 32  1  0
 12 33  1  0
 13 34  1  0
 13 35  1  0
 14 36  1  0
 14 37  1  0
 15 38  1  0
 15 39  1  0
 16 40  1  0
 16 41  1  0
 18 42  1  0
 19 43  1  0
 23 44  1  0
 24 45  1  0
M  END
>  <meeko>  (2) 
{"is_sidechain": [false], "free_energy": -9.267, "intermolecular_energy": -11.275, "internal_energy": -1.251}

$$$$
ligand_0_conformer_4_docked
     RDKit          3D

 45 48  0  0  0  0  0  0  0  0999 V2000
    9.3630   47.5450   51.8180 C   0  0  0  0  0  0  0  0  0  0  0  0
    9.7580   46.6370   52.8030 C   0  0  0  0  0  0  0  0  0  0  0  0
    8.8730   46.2870   53.8280 C   0  0  0  0  0  0  0  0  0  0  0  0
    7.5760   46.8320   53.8620 C   0  0  0  0  0  0  0  0  0  0  0  0
    6.6400   46.4590   54.8840 N   0  0  0  0  0  0  0  0  0  0  0  0
    5.4240   45.7470   54.6120 C   0  0  0  0  0  0  0  0  0  0  0  0
    5.3570   44.8640   53.5620 N   0  0  0  0  0  0  0  0  0  0  0  0
    4.2050   44.2040   53.2480 C   0  0  0  0  0  0  0  0  0  0  0  0
    4.1410   43.3040   52.1760 O   0  0  0  0  0  0  0  0  0  0  0  0
    5.2860   42.8600   51.4460 C   0  0  0  0  0  0  0  0  0  0  0  0
    5.3640   43.5420   50.0620 C   0  0  0  0  0  0  0  0  0  0  0  0
    6.1990   42.7080   49.0650 C   0  0  0  0  0  0  0  0  0  0  0  0
    7.7060   42.7840   49.3550 C   0  0  0  0  0  0  0  0  0  0  0  0
    8.1890   44.2380   49.3810 C   0  0  0  0  0  0  0  0  0  0  0  0
    7.3980   45.0640   50.3980 C   0  0  0  0  0  0  0  0  0  0  0  0
    5.8900   44.9940   50.1210 C   0  0  0  0  0  0  0  0  0  0  0  0
    3.0920   44.4610   54.0330 C   0  0  0  0  0  0  0  0  0  0  0  0
    1.8500   43.9720   53.9560 N   0  0  0  0  0  0  0  0  0  0  0  0
    1.1990   44.5910   54.9740 C   0  0  0  0  0  0  0  0  0  0  0  0
    1.9820   45.4480   55.6850 N   0  0  0  0  0  0  0  0  0  0  0  0
    3.1660   45.3370   55.0610 C   0  0  0  0  0  0  0  0  0  0  0  0
    4.3110   45.9940   55.3690 N   0  0  0  0  0  0  0  0  0  0  0  0
    7.2000   47.7650   52.8840 C   0  0  0  0  0  0  0  0  0  0  0  0
    8.0870   48.1140   51.8620 C   0  0  0  0  0  0  0  0  0  0  0  0
   10.0565   47.8125   51.0071 H   0  0  0  0  0  0  0  0  0  0  0  0
   10.7657   46.1969   52.7726 H   0  0  0  0  0  0  0  0  0  0  0  0
    9.1921   45.5829   54.6106 H   0  0  0  0  0  0  0  0  0  0  0  0
    6.7700   46.8520   55.8440 H   0  0  0  0  0  0  0  0  0  0  0  0
    6.1933   43.1040   52.0181 H   0  0  0  0  0  0  0  0  0  0  0  0
    5.2036   41.7735   51.2952 H   0  0  0  0  0  0  0  0  0  0  0  0
    4.3262   43.5942   49.7012 H   0  0  0  0  0  0  0  0  0  0  0  0
    5.8796   41.6574   49.1291 H   0  0  0  0  0  0  0  0  0  0  0  0
    6.0300   43.1203   48.0593 H   0  0  0  0  0  0  0  0  0  0  0  0
    7.9079   42.3206   50.3320 H   0  0  0  0  0  0  0  0  0  0  0  0
    8.2432   42.2511   48.5566 H   0  0  0  0  0  0  0  0  0  0  0  0
    9.2546   44.2576   49.6534 H   0  0  0  0  0  0  0  0  0  0  0  0
    8.0366   44.6743   48.3828 H   0  0  0  0  0  0  0  0  0  0  0  0
    7.5954   44.6741   51.4075 H   0  0  0  0  0  0  0  0  0  0  0  0
    7.7176   46.1134   50.3168 H   0  0  0  0  0  0  0  0  0  0  0  0
    5.3593   45.5288   50.9224 H   0  0  0  0  0  0  0  0  0  0  0  0
    5.7098   45.4541   49.1382 H   0  0  0  0  0  0  0  0  0  0  0  0
    1.4680   43.2810   53.2730 H   0  0  0  0  0  0  0  0  0  0  0  0
    0.1374   44.4162   55.2030 H   0  0  0  0  0  0  0  0  0  0  0  0
    6.2013   48.2245   52.9218 H   0  0  0  0  0  0  0  0  0  0  0  0
    7.7808   48.8370   51.0916 H   0  0  0  0  0  0  0  0  0  0  0  0
  1  2  2  0
  2  3  1  0
  3  4  2  0
  4  5  1  0
  5  6  1  0
  6  7  2  0
  7  8  1  0
  8  9  1  0
  9 10  1  0
 10 11  1  0
 11 12  1  0
 12 13  1  0
 13 14  1  0
 14 15  1  0
 15 16  1  0
  8 17  2  0
 17 18  1  0
 18 19  1  0
 19 20  2  0
 20 21  1  0
 21 22  2  0
  4 23  1  0
 23 24  2  0
 24  1  1  0
 22  6  1  0
 16 11  1  0
 21 17  1  0
  1 25  1  0
  2 26  1  0
  3 27  1  0
  5 28  1  0
 10 29  1  0
 10 30  1  0
 11 31  1  0
 12 32  1  0
 12 33  1  0
 13 34  1  0
 13 35  1  0
 14 36  1  0
 14 37  1  0
 15 38  1  0
 15 39  1  0
 16 40  1  0
 16 41  1  0
 18 42  1  0
 19 43  1  0
 23 44  1  0
 24 45  1  0
M  END
>  <meeko>  (3) 
{"is_sidechain": [false], "free_energy": -9.095, "intermolecular_energy": -11.15, "internal_energy": -1.153}

$$$$
ligand_0_conformer_4_docked
     RDKit          3D

 45 48  0  0  0  0  0  0  0  0999 V2000
   -1.1050   44.3850   53.2310 C   0  0  0  0  0  0  0  0  0  0  0  0
   -0.1800   44.4710   54.2740 C   0  0  0  0  0  0  0  0  0  0  0  0
    1.0290   43.7740   54.1970 C   0  0  0  0  0  0  0  0  0  0  0  0
    1.3290   42.9970   53.0620 C   0  0  0  0  0  0  0  0  0  0  0  0
    2.5790   42.3010   52.9470 N   0  0  0  0  0  0  0  0  0  0  0  0
    3.7080   42.8290   52.2360 C   0  0  0  0  0  0  0  0  0  0  0  0
    4.1980   44.0760   52.5410 N   0  0  0  0  0  0  0  0  0  0  0  0
    5.2410   44.6280   51.8570 C   0  0  0  0  0  0  0  0  0  0  0  0
    5.7370   45.8990   52.1710 O   0  0  0  0  0  0  0  0  0  0  0  0
    6.6860   46.1450   53.2110 C   0  0  0  0  0  0  0  0  0  0  0  0
    7.5850   47.3550   52.8710 C   0  0  0  0  0  0  0  0  0  0  0  0
    8.2010   47.2260   51.4600 C   0  0  0  0  0  0  0  0  0  0  0  0
    9.3270   46.1820   51.4070 C   0  0  0  0  0  0  0  0  0  0  0  0
   10.4130   46.4890   52.4440 C   0  0  0  0  0  0  0  0  0  0  0  0
    9.8200   46.5750   53.8530 C   0  0  0  0  0  0  0  0  0  0  0  0
    8.6910   47.6130   53.9200 C   0  0  0  0  0  0  0  0  0  0  0  0
    5.7940   43.8780   50.8300 C   0  0  0  0  0  0  0  0  0  0  0  0
    6.8030   44.1620   50.0010 N   0  0  0  0  0  0  0  0  0  0  0  0
    6.8860   43.0630   49.2080 C   0  0  0  0  0  0  0  0  0  0  0  0
    5.9680   42.1020   49.5070 N   0  0  0  0  0  0  0  0  0  0  0  0
    5.3010   42.6540   50.5340 C   0  0  0  0  0  0  0  0  0  0  0  0
    4.2620   42.1090   51.2130 N   0  0  0  0  0  0  0  0  0  0  0  0
    0.3810   42.8930   52.0330 C   0  0  0  0  0  0  0  0  0  0  0  0
   -0.8280   43.5920   52.1140 C   0  0  0  0  0  0  0  0  0  0  0  0
   -2.0520   44.9417   53.2888 H   0  0  0  0  0  0  0  0  0  0  0  0
   -0.4033   45.0879   55.1569 H   0  0  0  0  0  0  0  0  0  0  0  0
    1.7490   43.8328   55.0265 H   0  0  0  0  0  0  0  0  0  0  0  0
    2.6230   41.3040   53.2600 H   0  0  0  0  0  0  0  0  0  0  0  0
    6.1470   46.3502   54.1477 H   0  0  0  0  0  0  0  0  0  0  0  0
    7.3243   45.2555   53.3183 H   0  0  0  0  0  0  0  0  0  0  0  0
    6.9190   48.2303   52.8894 H   0  0  0  0  0  0  0  0  0  0  0  0
    7.4105   46.9294   50.7550 H   0  0  0  0  0  0  0  0  0  0  0  0
    8.6341   48.2010   51.1921 H   0  0  0  0  0  0  0  0  0  0  0  0
    8.9047   45.1873   51.6127 H   0  0  0  0  0  0  0  0  0  0  0  0
    9.7820   46.2092   50.4059 H   0  0  0  0  0  0  0  0  0  0  0  0
   11.1687   45.6901   52.4203 H   0  0  0  0  0  0  0  0  0  0  0  0
   10.8687   47.4591   52.1965 H   0  0  0  0  0  0  0  0  0  0  0  0
    9.4185   45.5901   54.1336 H   0  0  0  0  0  0  0  0  0  0  0  0
   10.6162   46.8824   54.5469 H   0  0  0  0  0  0  0  0  0  0  0  0
    8.2404   47.5795   54.9229 H   0  0  0  0  0  0  0  0  0  0  0  0
    9.1305   48.5984   53.7061 H   0  0  0  0  0  0  0  0  0  0  0  0
    7.3890   45.0260   49.9660 H   0  0  0  0  0  0  0  0  0  0  0  0
    7.6251   42.9585   48.4000 H   0  0  0  0  0  0  0  0  0  0  0  0
    0.5894   42.2590   51.1586 H   0  0  0  0  0  0  0  0  0  0  0  0
   -1.5615   43.5174   51.2976 H   0  0  0  0  0  0  0  0  0  0  0  0
  1  2  2  0
  2  3  1  0
  3  4  2  0
  4  5  1  0
  5  6  1  0
  6  7  2  0
  7  8  1  0
  8  9  1  0
  9 10  1  0
 10 11  1  0
 11 12  1  0
 12 13  1  0
 13 14  1  0
 14 15  1  0
 15 16  1  0
  8 17  2  0
 17 18  1  0
 18 19  1  0
 19 20  2  0
 20 21  1  0
 21 22  2  0
  4 23  1  0
 23 24  2  0
 24  1  1  0
 22  6  1  0
 16 11  1  0
 21 17  1  0
  1 25  1  0
  2 26  1  0
  3 27  1  0
  5 28  1  0
 10 29  1  0
 10 30  1  0
 11 31  1  0
 12 32  1  0
 12 33  1  0
 13 34  1  0
 13 35  1  0
 14 36  1  0
 14 37  1  0
 15 38  1  0
 15 39  1  0
 16 40  1  0
 16 41  1  0
 18 42  1  0
 19 43  1  0
 23 44  1  0
 24 45  1  0
M  END
>  <meeko>  (4) 
{"is_sidechain": [false], "free_energy": -9.042, "intermolecular_energy": -11.503, "internal_energy": -0.732}

$$$$
ligand_0_conformer_4_docked
     RDKit          3D

 45 48  0  0  0  0  0  0  0  0999 V2000
    4.2830   41.0650   45.5420 C   0  0  0  0  0  0  0  0  0  0  0  0
    5.4160   41.7860   45.9290 C   0  0  0  0  0  0  0  0  0  0  0  0
    5.7740   41.8550   47.2780 C   0  0  0  0  0  0  0  0  0  0  0  0
    5.0090   41.1840   48.2500 C   0  0  0  0  0  0  0  0  0  0  0  0
    5.3790   41.2130   49.6370 N   0  0  0  0  0  0  0  0  0  0  0  0
    4.9310   42.2270   50.5480 C   0  0  0  0  0  0  0  0  0  0  0  0
    5.7130   43.3290   50.7970 N   0  0  0  0  0  0  0  0  0  0  0  0
    5.3390   44.2910   51.6900 C   0  0  0  0  0  0  0  0  0  0  0  0
    6.1390   45.4130   51.9410 O   0  0  0  0  0  0  0  0  0  0  0  0
    7.4010   45.6430   51.3110 C   0  0  0  0  0  0  0  0  0  0  0  0
    7.9170   47.0700   51.6020 C   0  0  0  0  0  0  0  0  0  0  0  0
    9.4590   47.1380   51.5480 C   0  0  0  0  0  0  0  0  0  0  0  0
   10.1180   46.4860   52.7730 C   0  0  0  0  0  0  0  0  0  0  0  0
    9.5960   47.1060   54.0740 C   0  0  0  0  0  0  0  0  0  0  0  0
    8.0710   47.0040   54.1590 C   0  0  0  0  0  0  0  0  0  0  0  0
    7.4000   47.6500   52.9390 C   0  0  0  0  0  0  0  0  0  0  0  0
    4.1300   44.1130   52.3450 C   0  0  0  0  0  0  0  0  0  0  0  0
    3.5240   44.8770   53.2600 N   0  0  0  0  0  0  0  0  0  0  0  0
    2.3830   44.1960   53.5400 C   0  0  0  0  0  0  0  0  0  0  0  0
    2.2510   43.0370   52.8380 N   0  0  0  0  0  0  0  0  0  0  0  0
    3.3710   43.0220   52.0970 C   0  0  0  0  0  0  0  0  0  0  0  0
    3.7460   42.0660   51.2130 N   0  0  0  0  0  0  0  0  0  0  0  0
    3.8570   40.4880   47.8550 C   0  0  0  0  0  0  0  0  0  0  0  0
    3.5000   40.4220   46.5040 C   0  0  0  0  0  0  0  0  0  0  0  0
    4.0074   41.0037   44.4788 H   0  0  0  0  0  0  0  0  0  0  0  0
    6.0262   42.2994   45.1713 H   0  0  0  0  0  0  0  0  0  0  0  0
    6.6573   42.4361   47.5813 H   0  0  0  0  0  0  0  0  0  0  0  0
    6.1250   40.5580   49.9660 H   0  0  0  0  0  0  0  0  0  0  0  0
    8.1306   44.9128   51.6912 H   0  0  0  0  0  0  0  0  0  0  0  0
    7.2737   45.5328   50.2240 H   0  0  0  0  0  0  0  0  0  0  0  0
    7.5044   47.7005   50.8006 H   0  0  0  0  0  0  0  0  0  0  0  0
    9.8039   46.6173   50.6425 H   0  0  0  0  0  0  0  0  0  0  0  0
    9.7474   48.1995   51.5376 H   0  0  0  0  0  0  0  0  0  0  0  0
    9.8926   45.4093   52.7721 H   0  0  0  0  0  0  0  0  0  0  0  0
   11.2038   46.6530   52.7167 H   0  0  0  0  0  0  0  0  0  0  0  0
   10.0400   46.5747   54.9288 H   0  0  0  0  0  0  0  0  0  0  0  0
    9.8770   48.1694   54.0920 H   0  0  0  0  0  0  0  0  0  0  0  0
    7.7849   45.9429   54.2053 H   0  0  0  0  0  0  0  0  0  0  0  0
    7.7372   47.5368   55.0616 H   0  0  0  0  0  0  0  0  0  0  0  0
    6.3151   47.4792   53.0015 H   0  0  0  0  0  0  0  0  0  0  0  0
    7.6422   48.7229   52.9536 H   0  0  0  0  0  0  0  0  0  0  0  0
    3.8500   45.7810   53.6670 H   0  0  0  0  0  0  0  0  0  0  0  0
    1.6353   44.5479   54.2661 H   0  0  0  0  0  0  0  0  0  0  0  0
    3.2312   39.9916   48.6113 H   0  0  0  0  0  0  0  0  0  0  0  0
    2.6026   39.8637   46.1990 H   0  0  0  0  0  0  0  0  0  0  0  0
  1  2  2  0
  2  3  1  0
  3  4  2  0
  4  5  1  0
  5  6  1  0
  6  7  2  0
  7  8  1  0
  8  9  1  0
  9 10  1  0
 10 11  1  0
 11 12  1  0
 12 13  1  0
 13 14  1  0
 14 15  1  0
 15 16  1  0
  8 17  2  0
 17 18  1  0
 18 19  1  0
 19 20  2  0
 20 21  1  0
 21 22  2  0
  4 23  1  0
 23 24  2  0
 24  1  1  0
 22  6  1  0
 16 11  1  0
 21 17  1  0
  1 25  1  0
  2 26  1  0
  3 27  1  0
  5 28  1  0
 10 29  1  0
 10 30  1  0
 11 31  1  0
 12 32  1  0
 12 33  1  0
 13 34  1  0
 13 35  1  0
 14 36  1  0
 14 37  1  0
 15 38  1  0
 15 39  1  0
 16 40  1  0
 16 41  1  0
 18 42  1  0
 19 43  1  0
 23 44  1  0
 24 45  1  0
M  END
>  <meeko>  (5) 
{"is_sidechain": [false], "free_energy": -8.977, "intermolecular_energy": -11.574, "internal_energy": -0.577}

$$$$
