ligand_59_conformer_4_docked
     RDKit          3D

 49 51  0  0  0  0  0  0  0  0999 V2000
   11.3750   47.5220   56.5170 C   0  0  0  0  0  0  0  0  0  0  0  0
   10.2020   48.1150   55.9710 O   0  0  0  0  0  0  0  0  0  0  0  0
    9.4890   47.5420   54.9140 C   0  0  0  0  0  0  0  0  0  0  0  0
   10.1610   47.0930   53.8240 N   0  0  0  0  0  0  0  0  0  0  0  0
    9.5010   46.5450   52.7700 C   0  0  0  0  0  0  0  0  0  0  0  0
   10.2760   46.0330   51.5960 C   0  0  0  0  0  0  0  0  0  0  0  0
    8.1070   46.4250   52.8090 C   0  0  0  0  0  0  0  0  0  0  0  0
    7.4120   46.8980   53.9360 C   0  0  0  0  0  0  0  0  0  0  0  0
    5.9630   46.8580   54.0100 N   0  0  0  0  0  0  0  0  0  0  0  0
    5.2840   45.9600   54.9600 C   0  0  0  0  0  0  0  0  0  0  0  0
    3.7570   46.0060   54.8170 C   0  0  0  0  0  0  0  0  0  0  0  0
    3.3770   45.9530   53.3940 N   0  0  0  0  0  0  0  0  0  0  0  0
    2.3070   45.1160   52.8820 C   0  0  0  0  0  0  0  0  0  0  0  0
    2.0120   45.1870   51.6550 O   0  0  0  0  0  0  0  0  0  0  0  0
    1.5880   44.0860   53.7400 C   0  0  0  0  0  0  0  0  0  0  0  0
    0.3010   44.6630   54.3960 C   0  0  0  0  0  0  0  0  0  0  0  0
   -0.9470   44.3960   53.5420 C   0  0  0  0  0  0  0  0  0  0  0  0
   -1.1990   42.8840   53.3590 C   0  0  0  0  0  0  0  0  0  0  0  0
    0.0890   42.0380   53.4180 C   0  0  0  0  0  0  0  0  0  0  0  0
    1.3010   42.8160   52.8920 C   0  0  0  0  0  0  0  0  0  0  0  0
    4.0650   46.8480   52.4450 C   0  0  0  0  0  0  0  0  0  0  0  0
    5.1390   47.7010   53.1290 C   0  0  0  0  0  0  0  0  0  0  0  0
    8.1320   47.4390   54.9600 N   0  0  0  0  0  0  0  0  0  0  0  0
   11.3221   47.5487   57.6154 H   0  0  0  0  0  0  0  0  0  0  0  0
   11.4495   46.4779   56.1788 H   0  0  0  0  0  0  0  0  0  0  0  0
   12.2599   48.0810   56.1788 H   0  0  0  0  0  0  0  0  0  0  0  0
   11.1444   45.4593   51.9519 H   0  0  0  0  0  0  0  0  0  0  0  0
    9.6315   45.3824   50.9867 H   0  0  0  0  0  0  0  0  0  0  0  0
   10.6216   46.8811   50.9867 H   0  0  0  0  0  0  0  0  0  0  0  0
    7.5629   45.9671   51.9698 H   0  0  0  0  0  0  0  0  0  0  0  0
    5.6252   44.9301   54.7785 H   0  0  0  0  0  0  0  0  0  0  0  0
    5.5364   46.2941   55.9772 H   0  0  0  0  0  0  0  0  0  0  0  0
    3.3168   45.1460   55.3429 H   0  0  0  0  0  0  0  0  0  0  0  0
    3.3838   46.9443   55.2533 H   0  0  0  0  0  0  0  0  0  0  0  0
    2.2442   43.8053   54.5770 H   0  0  0  0  0  0  0  0  0  0  0  0
    0.1639   44.1948   55.3819 H   0  0  0  0  0  0  0  0  0  0  0  0
    0.4244   45.7522   54.4876 H   0  0  0  0  0  0  0  0  0  0  0  0
   -1.8205   44.8460   54.0364 H   0  0  0  0  0  0  0  0  0  0  0  0
   -0.7850   44.8400   52.5487 H   0  0  0  0  0  0  0  0  0  0  0  0
   -1.8764   42.5442   54.1563 H   0  0  0  0  0  0  0  0  0  0  0  0
   -1.6335   42.7455   52.3580 H   0  0  0  0  0  0  0  0  0  0  0  0
    0.2774   41.7472   54.4620 H   0  0  0  0  0  0  0  0  0  0  0  0
   -0.0527   41.1516   52.7822 H   0  0  0  0  0  0  0  0  0  0  0  0
    2.1843   42.1611   52.9225 H   0  0  0  0  0  0  0  0  0  0  0  0
    1.0796   43.1364   51.8632 H   0  0  0  0  0  0  0  0  0  0  0  0
    4.5417   46.2373   51.6641 H   0  0  0  0  0  0  0  0  0  0  0  0
    3.3141   47.5289   52.0178 H   0  0  0  0  0  0  0  0  0  0  0  0
    5.7794   48.1636   52.3636 H   0  0  0  0  0  0  0  0  0  0  0  0
    4.6517   48.4836   53.7291 H   0  0  0  0  0  0  0  0  0  0  0  0
  1  2  1  0
  2  3  1  0
  3  4  2  0
  4  5  1  0
  5  6  1  0
  5  7  2  0
  7  8  1  0
  8  9  1  0
  9 10  1  0
 10 11  1  0
 11 12  1  0
 12 13  1  0
 13 14  2  0
 13 15  1  0
 15 16  1  0
 16 17  1  0
 17 18  1  0
 18 19  1  0
 19 20  1  0
 12 21  1  0
 21 22  1  0
  8 23  2  0
 23  3  1  0
 22  9  1  0
 20 15  1  0
  1 24  1  0
  1 25  1  0
  1 26  1  0
  6 27  1  0
  6 28  1  0
  6 29  1  0
  7 30  1  0
 10 31  1  0
 10 32  1  0
 11 33  1  0
 11 34  1  0
 15 35  1  0
 16 36  1  0
 16 37  1  0
 17 38  1  0
 17 39  1  0
 18 40  1  0
 18 41  1  0
 19 42  1  0
 19 43  1  0
 20 44  1  0
 20 45  1  0
 21 46  1  0
 21 47  1  0
 22 48  1  0
 22 49  1  0
M  END
>  <meeko>  (1) 
{"is_sidechain": [false], "free_energy": -8.429, "intermolecular_energy": -9.908, "internal_energy": -0.441}

$$$$
ligand_59_conformer_4_docked
     RDKit          3D

 49 51  0  0  0  0  0  0  0  0999 V2000
   -2.8410   44.9660   50.7110 C   0  0  0  0  0  0  0  0  0  0  0  0
   -1.7250   45.6790   51.2320 O   0  0  0  0  0  0  0  0  0  0  0  0
   -0.7420   45.0710   52.0190 C   0  0  0  0  0  0  0  0  0  0  0  0
   -0.8700   43.7600   52.3480 N   0  0  0  0  0  0  0  0  0  0  0  0
    0.0570   43.1390   53.1240 C   0  0  0  0  0  0  0  0  0  0  0  0
   -0.1000   41.6850   53.4430 C   0  0  0  0  0  0  0  0  0  0  0  0
    1.1700   43.8520   53.5840 C   0  0  0  0  0  0  0  0  0  0  0  0
    1.2960   45.2130   53.2490 C   0  0  0  0  0  0  0  0  0  0  0  0
    2.3940   46.0200   53.7440 N   0  0  0  0  0  0  0  0  0  0  0  0
    3.1380   46.9150   52.8400 C   0  0  0  0  0  0  0  0  0  0  0  0
    4.3110   47.6100   53.5420 C   0  0  0  0  0  0  0  0  0  0  0  0
    5.0630   46.6400   54.3590 N   0  0  0  0  0  0  0  0  0  0  0  0
    6.5120   46.5690   54.3830 C   0  0  0  0  0  0  0  0  0  0  0  0
    7.0690   45.7460   55.1660 O   0  0  0  0  0  0  0  0  0  0  0  0
    7.3920   47.3740   53.4380 C   0  0  0  0  0  0  0  0  0  0  0  0
    8.7120   47.8390   54.1160 C   0  0  0  0  0  0  0  0  0  0  0  0
    9.8600   46.8490   53.8740 C   0  0  0  0  0  0  0  0  0  0  0  0
   10.1780   46.7020   52.3700 C   0  0  0  0  0  0  0  0  0  0  0  0
    8.9590   46.9570   51.4600 C   0  0  0  0  0  0  0  0  0  0  0  0
    7.6480   46.5530   52.1440 C   0  0  0  0  0  0  0  0  0  0  0  0
    4.3140   45.7430   55.2570 C   0  0  0  0  0  0  0  0  0  0  0  0
    2.8000   45.9570   55.1580 C   0  0  0  0  0  0  0  0  0  0  0  0
    0.3320   45.7780   52.4680 N   0  0  0  0  0  0  0  0  0  0  0  0
   -3.4485   44.5779   51.5419 H   0  0  0  0  0  0  0  0  0  0  0  0
   -3.4521   45.6414   50.0942 H   0  0  0  0  0  0  0  0  0  0  0  0
   -2.4850   44.1276   50.0942 H   0  0  0  0  0  0  0  0  0  0  0  0
   -0.1147   41.5486   54.5344 H   0  0  0  0  0  0  0  0  0  0  0  0
   -1.0433   41.3154   53.0145 H   0  0  0  0  0  0  0  0  0  0  0  0
    0.7426   41.1225   53.0145 H   0  0  0  0  0  0  0  0  0  0  0  0
    1.9354   43.3556   54.1986 H   0  0  0  0  0  0  0  0  0  0  0  0
    3.5296   46.3228   51.9998 H   0  0  0  0  0  0  0  0  0  0  0  0
    2.4440   47.6951   52.4937 H   0  0  0  0  0  0  0  0  0  0  0  0
    4.9811   48.0446   52.7856 H   0  0  0  0  0  0  0  0  0  0  0  0
    3.9189   48.4025   54.1964 H   0  0  0  0  0  0  0  0  0  0  0  0
    6.8616   48.2982   53.1648 H   0  0  0  0  0  0  0  0  0  0  0  0
    8.9959   48.8196   53.7063 H   0  0  0  0  0  0  0  0  0  0  0  0
    8.5357   47.8979   55.2002 H   0  0  0  0  0  0  0  0  0  0  0  0
   10.7588   47.2107   54.3950 H   0  0  0  0  0  0  0  0  0  0  0  0
    9.5519   45.8652   54.2577 H   0  0  0  0  0  0  0  0  0  0  0  0
   10.9661   47.4232   52.1078 H   0  0  0  0  0  0  0  0  0  0  0  0
   10.4956   45.6619   52.2047 H   0  0  0  0  0  0  0  0  0  0  0  0
    8.9167   48.0279   51.2121 H   0  0  0  0  0  0  0  0  0  0  0  0
    9.0747   46.3470   50.5519 H   0  0  0  0  0  0  0  0  0  0  0  0
    6.8156   46.7222   51.4451 H   0  0  0  0  0  0  0  0  0  0  0  0
    7.7224   45.4916   52.4231 H   0  0  0  0  0  0  0  0  0  0  0  0
    4.5428   44.7011   54.9885 H   0  0  0  0  0  0  0  0  0  0  0  0
    4.6198   45.9667   56.2897 H   0  0  0  0  0  0  0  0  0  0  0  0
    2.2806   45.1212   55.6497 H   0  0  0  0  0  0  0  0  0  0  0  0
    2.5348   46.9027   55.6533 H   0  0  0  0  0  0  0  0  0  0  0  0
  1  2  1  0
  2  3  1  0
  3  4  2  0
  4  5  1  0
  5  6  1  0
  5  7  2  0
  7  8  1  0
  8  9  1  0
  9 10  1  0
 10 11  1  0
 11 12  1  0
 12 13  1  0
 13 14  2  0
 13 15  1  0
 15 16  1  0
 16 17  1  0
 17 18  1  0
 18 19  1  0
 19 20  1  0
 12 21  1  0
 21 22  1  0
  8 23  2  0
 23  3  1  0
 22  9  1  0
 20 15  1  0
  1 24  1  0
  1 25  1  0
  1 26  1  0
  6 27  1  0
  6 28  1  0
  6 29  1  0
  7 30  1  0
 10 31  1  0
 10 32  1  0
 11 33  1  0
 11 34  1  0
 15 35  1  0
 16 36  1  0
 16 37  1  0
 17 38  1  0
 17 39  1  0
 18 40  1  0
 18 41  1  0
 19 42  1  0
 19 43  1  0
 20 44  1  0
 20 45  1  0
 21 46  1  0
 21 47  1  0
 22 48  1  0
 22 49  1  0
M  END
>  <meeko>  (2) 
{"is_sidechain": [false], "free_energy": -8.269, "intermolecular_energy": -9.807, "internal_energy": -0.353}

$$$$
ligand_59_conformer_4_docked
     RDKit          3D

 49 51  0  0  0  0  0  0  0  0999 V2000
   -2.6980   42.2420   51.4000 C   0  0  0  0  0  0  0  0  0  0  0  0
   -1.6890   41.9000   52.3430 O   0  0  0  0  0  0  0  0  0  0  0  0
   -0.9780   42.8610   53.0690 C   0  0  0  0  0  0  0  0  0  0  0  0
   -1.4320   43.2430   54.2890 N   0  0  0  0  0  0  0  0  0  0  0  0
   -0.7780   44.1860   55.0170 C   0  0  0  0  0  0  0  0  0  0  0  0
   -1.2900   44.5630   56.3710 C   0  0  0  0  0  0  0  0  0  0  0  0
    0.3920   44.7650   54.5130 C   0  0  0  0  0  0  0  0  0  0  0  0
    0.8570   44.3730   53.2440 C   0  0  0  0  0  0  0  0  0  0  0  0
    2.0280   44.9810   52.6410 N   0  0  0  0  0  0  0  0  0  0  0  0
    3.2380   44.1810   52.3780 C   0  0  0  0  0  0  0  0  0  0  0  0
    4.3880   45.0300   51.8210 C   0  0  0  0  0  0  0  0  0  0  0  0
    4.5160   46.2810   52.5890 N   0  0  0  0  0  0  0  0  0  0  0  0
    5.7890   46.8170   53.0370 C   0  0  0  0  0  0  0  0  0  0  0  0
    5.8040   47.9320   53.6340 O   0  0  0  0  0  0  0  0  0  0  0  0
    7.0970   46.0520   52.9040 C   0  0  0  0  0  0  0  0  0  0  0  0
    7.7510   46.2450   51.5060 C   0  0  0  0  0  0  0  0  0  0  0  0
    8.7640   47.3990   51.5030 C   0  0  0  0  0  0  0  0  0  0  0  0
    9.9240   47.1420   52.4890 C   0  0  0  0  0  0  0  0  0  0  0  0
    9.5230   46.2570   53.6870 C   0  0  0  0  0  0  0  0  0  0  0  0
    8.0500   46.4500   54.0650 C   0  0  0  0  0  0  0  0  0  0  0  0
    3.3020   47.0740   52.8560 C   0  0  0  0  0  0  0  0  0  0  0  0
    2.0420   46.4100   52.2910 C   0  0  0  0  0  0  0  0  0  0  0  0
    0.1540   43.4240   52.5630 N   0  0  0  0  0  0  0  0  0  0  0  0
   -3.6090   42.5508   51.9336 H   0  0  0  0  0  0  0  0  0  0  0  0
   -2.3442   43.0704   50.7687 H   0  0  0  0  0  0  0  0  0  0  0  0
   -2.9209   41.3692   50.7687 H   0  0  0  0  0  0  0  0  0  0  0  0
   -0.6596   44.0988   57.1437 H   0  0  0  0  0  0  0  0  0  0  0  0
   -1.2609   45.6569   56.4825 H   0  0  0  0  0  0  0  0  0  0  0  0
   -2.3260   44.2105   56.4825 H   0  0  0  0  0  0  0  0  0  0  0  0
    0.9405   45.5160   55.1005 H   0  0  0  0  0  0  0  0  0  0  0  0
    3.5657   43.7155   53.3192 H   0  0  0  0  0  0  0  0  0  0  0  0
    2.9827   43.4234   51.6225 H   0  0  0  0  0  0  0  0  0  0  0  0
    5.3271   44.4617   51.8932 H   0  0  0  0  0  0  0  0  0  0  0  0
    4.1766   45.2746   50.7696 H   0  0  0  0  0  0  0  0  0  0  0  0
    6.8851   44.9754   52.9822 H   0  0  0  0  0  0  0  0  0  0  0  0
    8.2688   45.3163   51.2242 H   0  0  0  0  0  0  0  0  0  0  0  0
    6.9545   46.4882   50.7873 H   0  0  0  0  0  0  0  0  0  0  0  0
    9.1757   47.5095   50.4890 H   0  0  0  0  0  0  0  0  0  0  0  0
    8.2422   48.3147   51.8180 H   0  0  0  0  0  0  0  0  0  0  0  0
   10.7404   46.6442   51.9452 H   0  0  0  0  0  0  0  0  0  0  0  0
   10.2295   48.1182   52.8935 H   0  0  0  0  0  0  0  0  0  0  0  0
    9.6881   45.2022   53.4223 H   0  0  0  0  0  0  0  0  0  0  0  0
   10.1399   46.5474   54.5502 H   0  0  0  0  0  0  0  0  0  0  0  0
    7.8230   45.8253   54.9415 H   0  0  0  0  0  0  0  0  0  0  0  0
    7.8916   47.5159   54.2860 H   0  0  0  0  0  0  0  0  0  0  0  0
    3.1852   47.1878   53.9438 H   0  0  0  0  0  0  0  0  0  0  0  0
    3.4203   48.0498   52.3622 H   0  0  0  0  0  0  0  0  0  0  0  0
    1.1517   46.8978   52.7146 H   0  0  0  0  0  0  0  0  0  0  0  0
    2.0382   46.5143   51.1960 H   0  0  0  0  0  0  0  0  0  0  0  0
  1  2  1  0
  2  3  1  0
  3  4  2  0
  4  5  1  0
  5  6  1  0
  5  7  2  0
  7  8  1  0
  8  9  1  0
  9 10  1  0
 10 11  1  0
 11 12  1  0
 12 13  1  0
 13 14  2  0
 13 15  1  0
 15 16  1  0
 16 17  1  0
 17 18  1  0
 18 19  1  0
 19 20  1  0
 12 21  1  0
 21 22  1  0
  8 23  2  0
 23  3  1  0
 22  9  1  0
 20 15  1  0
  1 24  1  0
  1 25  1  0
  1 26  1  0
  6 27  1  0
  6 28  1  0
  6 29  1  0
  7 30  1  0
 10 31  1  0
 10 32  1  0
 11 33  1  0
 11 34  1  0
 15 35  1  0
 16 36  1  0
 16 37  1  0
 17 38  1  0
 17 39  1  0
 18 40  1  0
 18 41  1  0
 19 42  1  0
 19 43  1  0
 20 44  1  0
 20 45  1  0
 21 46  1  0
 21 47  1  0
 22 48  1  0
 22 49  1  0
M  END
>  <meeko>  (3) 
{"is_sidechain": [false], "free_energy": -8.222, "intermolecular_energy": -9.705, "internal_energy": -0.401}

$$$$
ligand_59_conformer_4_docked
     RDKit          3D

 49 51  0  0  0  0  0  0  0  0999 V2000
    0.9400   46.7980   58.3440 C   0  0  0  0  0  0  0  0  0  0  0  0
   -0.0560   45.9130   57.8440 O   0  0  0  0  0  0  0  0  0  0  0  0
   -0.0950   45.4970   56.5090 C   0  0  0  0  0  0  0  0  0  0  0  0
   -1.2170   44.9030   56.0300 N   0  0  0  0  0  0  0  0  0  0  0  0
   -1.2860   44.4710   54.7440 C   0  0  0  0  0  0  0  0  0  0  0  0
   -2.5500   43.8460   54.2400 C   0  0  0  0  0  0  0  0  0  0  0  0
   -0.1930   44.6520   53.8890 C   0  0  0  0  0  0  0  0  0  0  0  0
    0.9720   45.2620   54.3900 C   0  0  0  0  0  0  0  0  0  0  0  0
    2.1590   45.4220   53.5720 N   0  0  0  0  0  0  0  0  0  0  0  0
    3.3260   44.5420   53.7590 C   0  0  0  0  0  0  0  0  0  0  0  0
    4.5030   44.9340   52.8580 C   0  0  0  0  0  0  0  0  0  0  0  0
    4.7030   46.3940   52.8870 N   0  0  0  0  0  0  0  0  0  0  0  0
    6.0060   47.0210   53.0110 C   0  0  0  0  0  0  0  0  0  0  0  0
    6.0830   48.2820   52.9610 O   0  0  0  0  0  0  0  0  0  0  0  0
    7.2750   46.2310   53.2950 C   0  0  0  0  0  0  0  0  0  0  0  0
    7.9190   45.6680   51.9960 C   0  0  0  0  0  0  0  0  0  0  0  0
    8.9850   46.6160   51.4280 C   0  0  0  0  0  0  0  0  0  0  0  0
   10.1440   46.8330   52.4250 C   0  0  0  0  0  0  0  0  0  0  0  0
    9.7180   46.6860   53.9000 C   0  0  0  0  0  0  0  0  0  0  0  0
    8.2600   47.1100   54.1120 C   0  0  0  0  0  0  0  0  0  0  0  0
    3.5310   47.2710   52.7060 C   0  0  0  0  0  0  0  0  0  0  0  0
    2.2320   46.4750   52.5450 C   0  0  0  0  0  0  0  0  0  0  0  0
    0.9790   45.6710   55.6900 N   0  0  0  0  0  0  0  0  0  0  0  0
    0.9242   46.7840   59.4438 H   0  0  0  0  0  0  0  0  0  0  0  0
    1.9294   46.4756   57.9873 H   0  0  0  0  0  0  0  0  0  0  0  0
    0.7362   47.8184   57.9873 H   0  0  0  0  0  0  0  0  0  0  0  0
   -3.1724   43.5382   55.0932 H   0  0  0  0  0  0  0  0  0  0  0  0
   -3.1012   44.5754   53.6283 H   0  0  0  0  0  0  0  0  0  0  0  0
   -2.3050   42.9652   53.6283 H   0  0  0  0  0  0  0  0  0  0  0  0
   -0.2438   44.3223   52.8408 H   0  0  0  0  0  0  0  0  0  0  0  0
    3.6492   44.6020   54.8087 H   0  0  0  0  0  0  0  0  0  0  0  0
    3.0224   43.5198   53.4889 H   0  0  0  0  0  0  0  0  0  0  0  0
    5.4159   44.4352   53.2155 H   0  0  0  0  0  0  0  0  0  0  0  0
    4.2839   44.6225   51.8260 H   0  0  0  0  0  0  0  0  0  0  0  0
    7.0136   45.3495   53.8989 H   0  0  0  0  0  0  0  0  0  0  0  0
    8.3888   44.6996   52.2228 H   0  0  0  0  0  0  0  0  0  0  0  0
    7.1253   45.5569   51.2425 H   0  0  0  0  0  0  0  0  0  0  0  0
    9.3886   46.1841   50.5003 H   0  0  0  0  0  0  0  0  0  0  0  0
    8.5110   47.5897   51.2351 H   0  0  0  0  0  0  0  0  0  0  0  0
   10.9294   46.0925   52.2133 H   0  0  0  0  0  0  0  0  0  0  0  0
   10.4992   47.8654   52.2907 H   0  0  0  0  0  0  0  0  0  0  0  0
    9.8311   45.6340   54.2010 H   0  0  0  0  0  0  0  0  0  0  0  0
   10.3584   47.3404   54.5096 H   0  0  0  0  0  0  0  0  0  0  0  0
    8.0152   47.0187   55.1805 H   0  0  0  0  0  0  0  0  0  0  0  0
    8.1545   48.1493   53.7675 H   0  0  0  0  0  0  0  0  0  0  0  0
    3.4389   47.9252   53.5855 H   0  0  0  0  0  0  0  0  0  0  0  0
    3.6852   47.8553   51.7868 H   0  0  0  0  0  0  0  0  0  0  0  0
    1.3727   47.1528   52.6558 H   0  0  0  0  0  0  0  0  0  0  0  0
    2.2130   46.0106   51.5480 H   0  0  0  0  0  0  0  0  0  0  0  0
  1  2  1  0
  2  3  1  0
  3  4  2  0
  4  5  1  0
  5  6  1  0
  5  7  2  0
  7  8  1  0
  8  9  1  0
  9 10  1  0
 10 11  1  0
 11 12  1  0
 12 13  1  0
 13 14  2  0
 13 15  1  0
 15 16  1  0
 16 17  1  0
 17 18  1  0
 18 19  1  0
 19 20  1  0
 12 21  1  0
 21 22  1  0
  8 23  2  0
 23  3  1  0
 22  9  1  0
 20 15  1  0
  1 24  1  0
  1 25  1  0
  1 26  1  0
  6 27  1  0
  6 28  1  0
  6 29  1  0
  7 30  1  0
 10 31  1  0
 10 32  1  0
 11 33  1  0
 11 34  1  0
 15 35  1  0
 16 36  1  0
 16 37  1  0
 17 38  1  0
 17 39  1  0
 18 40  1  0
 18 41  1  0
 19 42  1  0
 19 43  1  0
 20 44  1  0
 20 45  1  0
 21 46  1  0
 21 47  1  0
 22 48  1  0
 22 49  1  0
M  END
>  <meeko>  (4) 
{"is_sidechain": [false], "free_energy": -8.078, "intermolecular_energy": -9.518, "internal_energy": -0.418}

$$$$
ligand_59_conformer_4_docked
     RDKit          3D

 49 51  0  0  0  0  0  0  0  0999 V2000
    9.0700   47.8910   54.0590 C   0  0  0  0  0  0  0  0  0  0  0  0
    8.1670   48.1350   52.9870 O   0  0  0  0  0  0  0  0  0  0  0  0
    7.6020   47.1060   52.2270 C   0  0  0  0  0  0  0  0  0  0  0  0
    8.3900   46.3940   51.3810 N   0  0  0  0  0  0  0  0  0  0  0  0
    7.8730   45.3980   50.6150 C   0  0  0  0  0  0  0  0  0  0  0  0
    8.7760   44.6140   49.7140 C   0  0  0  0  0  0  0  0  0  0  0  0
    6.5130   45.0850   50.7050 C   0  0  0  0  0  0  0  0  0  0  0  0
    5.6960   45.8290   51.5770 C   0  0  0  0  0  0  0  0  0  0  0  0
    4.2680   45.5930   51.6700 N   0  0  0  0  0  0  0  0  0  0  0  0
    3.3890   46.5610   52.3490 C   0  0  0  0  0  0  0  0  0  0  0  0
    1.9330   46.0820   52.4130 C   0  0  0  0  0  0  0  0  0  0  0  0
    1.8800   44.6670   52.8200 N   0  0  0  0  0  0  0  0  0  0  0  0
    0.9460   44.1530   53.8050 C   0  0  0  0  0  0  0  0  0  0  0  0
    0.9320   42.9110   54.0410 O   0  0  0  0  0  0  0  0  0  0  0  0
    0.0480   45.0560   54.6370 C   0  0  0  0  0  0  0  0  0  0  0  0
   -1.4580   44.7020   54.4710 C   0  0  0  0  0  0  0  0  0  0  0  0
   -1.9370   43.7200   55.5500 C   0  0  0  0  0  0  0  0  0  0  0  0
   -1.7880   44.3130   56.9670 C   0  0  0  0  0  0  0  0  0  0  0  0
   -0.6430   45.3390   57.0830 C   0  0  0  0  0  0  0  0  0  0  0  0
    0.5060   45.0160   56.1210 C   0  0  0  0  0  0  0  0  0  0  0  0
    2.7660   43.7030   52.1420 C   0  0  0  0  0  0  0  0  0  0  0  0
    3.6650   44.3770   51.1000 C   0  0  0  0  0  0  0  0  0  0  0  0
    6.2740   46.8170   52.3180 N   0  0  0  0  0  0  0  0  0  0  0  0
    8.5483   48.0320   55.0171 H   0  0  0  0  0  0  0  0  0  0  0  0
    9.4456   46.8591   53.9944 H   0  0  0  0  0  0  0  0  0  0  0  0
    9.9142   48.5932   53.9944 H   0  0  0  0  0  0  0  0  0  0  0  0
    9.4684   44.0129   50.3217 H   0  0  0  0  0  0  0  0  0  0  0  0
    8.1727   43.9484   49.0792 H   0  0  0  0  0  0  0  0  0  0  0  0
    9.3503   45.3048   49.0792 H   0  0  0  0  0  0  0  0  0  0  0  0
    6.0876   44.2687   50.1027 H   0  0  0  0  0  0  0  0  0  0  0  0
    3.7564   46.7133   53.3746 H   0  0  0  0  0  0  0  0  0  0  0  0
    3.4098   47.4967   51.7710 H   0  0  0  0  0  0  0  0  0  0  0  0
    1.3819   46.6913   53.1445 H   0  0  0  0  0  0  0  0  0  0  0  0
    1.4769   46.1863   51.4175 H   0  0  0  0  0  0  0  0  0  0  0  0
    0.1489   46.0879   54.2695 H   0  0  0  0  0  0  0  0  0  0  0  0
   -2.0506   45.6260   54.5425 H   0  0  0  0  0  0  0  0  0  0  0  0
   -1.5895   44.2219   53.4901 H   0  0  0  0  0  0  0  0  0  0  0  0
   -2.9964   43.4835   55.3720 H   0  0  0  0  0  0  0  0  0  0  0  0
   -1.3158   42.8142   55.4899 H   0  0  0  0  0  0  0  0  0  0  0  0
   -2.7310   44.8104   57.2379 H   0  0  0  0  0  0  0  0  0  0  0  0
   -1.5482   43.4802   57.6445 H   0  0  0  0  0  0  0  0  0  0  0  0
   -1.0352   46.3393   56.8471 H   0  0  0  0  0  0  0  0  0  0  0  0
   -0.2514   45.3018   58.1103 H   0  0  0  0  0  0  0  0  0  0  0  0
    1.3088   45.7540   56.2654 H   0  0  0  0  0  0  0  0  0  0  0  0
    0.8590   43.9977   56.3414 H   0  0  0  0  0  0  0  0  0  0  0  0
    3.4015   43.2151   52.8957 H   0  0  0  0  0  0  0  0  0  0  0  0
    2.1322   42.9718   51.6189 H   0  0  0  0  0  0  0  0  0  0  0  0
    4.4620   43.6805   50.8007 H   0  0  0  0  0  0  0  0  0  0  0  0
    3.0606   44.6497   50.2223 H   0  0  0  0  0  0  0  0  0  0  0  0
  1  2  1  0
  2  3  1  0
  3  4  2  0
  4  5  1  0
  5  6  1  0
  5  7  2  0
  7  8  1  0
  8  9  1  0
  9 10  1  0
 10 11  1  0
 11 12  1  0
 12 13  1  0
 13 14  2  0
 13 15  1  0
 15 16  1  0
 16 17  1  0
 17 18  1  0
 18 19  1  0
 19 20  1  0
 12 21  1  0
 21 22  1  0
  8 23  2  0
 23  3  1  0
 22  9  1  0
 20 15  1  0
  1 24  1  0
  1 25  1  0
  1 26  1  0
  6 27  1  0
  6 28  1  0
  6 29  1  0
  7 30  1  0
 10 31  1  0
 10 32  1  0
 11 33  1  0
 11 34  1  0
 15 35  1  0
 16 36  1  0
 16 37  1  0
 17 38  1  0
 17 39  1  0
 18 40  1  0
 18 41  1  0
 19 42  1  0
 19 43  1  0
 20 44  1  0
 20 45  1  0
 21 46  1  0
 21 47  1  0
 22 48  1  0
 22 49  1  0
M  END
>  <meeko>  (5) 
{"is_sidechain": [false], "free_energy": -7.514, "intermolecular_energy": -8.888, "internal_energy": -0.386}

$$$$
