MODEL 1
REMARK VINA RESULT:    -8.439      0.000      0.000
REMARK INTER + INTRA:         -11.208
REMARK INTER:                 -11.399
REMARK INTRA:                   0.191
REMARK UNBOUND:                 0.191
REMARK SMILES COC(=O)c1ccc(Cn2cc(Cn3cccn3)nn2)cc1C
REMARK SMILES IDX 5 1 6 2 7 3 8 4 21 5 22 6 23 7 3 8 4 9 2 10 1 11 9 12 10 13
REMARK SMILES IDX 11 14 20 15 12 16 19 17 13 18 14 19 15 20 18 21 16 22 17 23
REMARK H PARENT
ROOT
ATOM      1  C   UNL     1       8.998  46.989  53.647  1.00  0.00     0.063 A 
ATOM      2  C   UNL     1       9.903  46.790  52.587  1.00  0.00     0.016 A 
ATOM      3  C   UNL     1       9.478  46.252  51.372  1.00  0.00     0.006 A 
ATOM      4  C   UNL     1       8.136  45.913  51.181  1.00  0.00    -0.026 A 
ATOM      5  C   UNL     1       7.228  46.079  52.234  1.00  0.00     0.010 A 
ATOM      6  C   UNL     1       7.642  46.601  53.472  1.00  0.00    -0.036 A 
ATOM      7  C   UNL     1       6.624  46.715  54.577  1.00  0.00     0.045 C 
ENDROOT
BRANCH   1   8
ATOM      8  C   UNL     1       9.506  47.594  54.906  1.00  0.00     0.338 C 
ATOM      9  O   UNL     1       9.011  48.680  55.320  1.00  0.00    -0.246 OA
BRANCH   8  10
ATOM     10  O   UNL     1      10.500  46.956  55.653  1.00  0.00    -0.465 OA
ATOM     11  C   UNL     1      11.343  47.650  56.564  1.00  0.00     0.282 C 
ENDBRANCH   8  10
ENDBRANCH   1   8
BRANCH   4  12
ATOM     12  C   UNL     1       7.689  45.288  49.888  1.00  0.00     0.181 C 
BRANCH  12  13
ATOM     13  N   UNL     1       6.599  44.354  50.145  1.00  0.00    -0.248 N 
ATOM     14  C   UNL     1       5.385  44.658  50.633  1.00  0.00     0.137 A 
ATOM     15  N   UNL     1       6.709  43.037  50.074  1.00  0.00    -0.067 NA
ATOM     16  C   UNL     1       4.745  43.454  50.828  1.00  0.00     0.104 A 
ATOM     17  N   UNL     1       5.589  42.459  50.486  1.00  0.00    -0.133 NA
BRANCH  16  18
ATOM     18  C   UNL     1       3.411  43.252  51.470  1.00  0.00     0.203 C 
BRANCH  18  19
ATOM     19  N   UNL     1       3.021  44.461  52.186  1.00  0.00    -0.267 N 
ATOM     20  C   UNL     1       3.326  44.757  53.463  1.00  0.00     0.109 A 
ATOM     21  N   UNL     1       2.220  45.389  51.687  1.00  0.00    -0.181 NA
ATOM     22  C   UNL     1       2.706  45.942  53.792  1.00  0.00     0.042 A 
ATOM     23  C   UNL     1       2.021  46.311  52.650  1.00  0.00     0.135 A 
ENDBRANCH  18  19
ENDBRANCH  16  18
ENDBRANCH  12  13
ENDBRANCH   4  12
TORSDOF 6
ENDMDL
MODEL 2
REMARK VINA RESULT:    -8.427      2.132      3.148
REMARK INTER + INTRA:         -11.192
REMARK INTER:                 -10.764
REMARK INTRA:                  -0.428
REMARK UNBOUND:                 0.191
REMARK SMILES COC(=O)c1ccc(Cn2cc(Cn3cccn3)nn2)cc1C
REMARK SMILES IDX 5 1 6 2 7 3 8 4 21 5 22 6 23 7 3 8 4 9 2 10 1 11 9 12 10 13
REMARK SMILES IDX 11 14 20 15 12 16 19 17 13 18 14 19 15 20 18 21 16 22 17 23
REMARK H PARENT
ROOT
ATOM      1  C   UNL     1       7.515  46.543  52.254  1.00  0.00     0.063 A 
ATOM      2  C   UNL     1       7.588  46.061  50.933  1.00  0.00     0.016 A 
ATOM      3  C   UNL     1       6.753  45.031  50.499  1.00  0.00     0.006 A 
ATOM      4  C   UNL     1       5.815  44.467  51.368  1.00  0.00    -0.026 A 
ATOM      5  C   UNL     1       5.748  44.917  52.693  1.00  0.00     0.010 A 
ATOM      6  C   UNL     1       6.595  45.940  53.154  1.00  0.00    -0.036 A 
ATOM      7  C   UNL     1       6.502  46.349  54.602  1.00  0.00     0.045 C 
ENDROOT
BRANCH   1   8
ATOM      8  C   UNL     1       8.410  47.663  52.648  1.00  0.00     0.338 C 
ATOM      9  O   UNL     1       7.992  48.852  52.570  1.00  0.00    -0.246 OA
BRANCH   8  10
ATOM     10  O   UNL     1       9.696  47.410  53.136  1.00  0.00    -0.465 OA
ATOM     11  C   UNL     1       9.978  47.270  54.523  1.00  0.00     0.282 C 
ENDBRANCH   8  10
ENDBRANCH   1   8
BRANCH   4  12
ATOM     12  C   UNL     1       4.951  43.324  50.914  1.00  0.00     0.181 C 
BRANCH  12  13
ATOM     13  N   UNL     1       3.645  43.408  51.559  1.00  0.00    -0.248 N 
ATOM     14  C   UNL     1       2.814  44.463  51.546  1.00  0.00     0.137 A 
ATOM     15  N   UNL     1       3.159  42.495  52.384  1.00  0.00    -0.067 NA
ATOM     16  C   UNL     1       1.775  44.134  52.387  1.00  0.00     0.104 A 
ATOM     17  N   UNL     1       2.013  42.913  52.907  1.00  0.00    -0.133 NA
BRANCH  16  18
ATOM     18  C   UNL     1       0.653  45.028  52.804  1.00  0.00     0.203 C 
BRANCH  18  19
ATOM     19  N   UNL     1       0.556  45.052  54.259  1.00  0.00    -0.267 N 
ATOM     20  C   UNL     1      -0.541  44.759  54.983  1.00  0.00     0.109 A 
ATOM     21  N   UNL     1       1.526  45.468  55.057  1.00  0.00    -0.181 NA
ATOM     22  C   UNL     1      -0.253  44.980  56.311  1.00  0.00     0.042 A 
ATOM     23  C   UNL     1       1.057  45.423  56.319  1.00  0.00     0.135 A 
ENDBRANCH  18  19
ENDBRANCH  16  18
ENDBRANCH  12  13
ENDBRANCH   4  12
TORSDOF 6
ENDMDL
MODEL 3
REMARK VINA RESULT:    -8.396      1.731      2.798
REMARK INTER + INTRA:         -11.149
REMARK INTER:                 -10.997
REMARK INTRA:                  -0.152
REMARK UNBOUND:                 0.191
REMARK SMILES COC(=O)c1ccc(Cn2cc(Cn3cccn3)nn2)cc1C
REMARK SMILES IDX 5 1 6 2 7 3 8 4 21 5 22 6 23 7 3 8 4 9 2 10 1 11 9 12 10 13
REMARK SMILES IDX 11 14 20 15 12 16 19 17 13 18 14 19 15 20 18 21 16 22 17 23
REMARK H PARENT
ROOT
ATOM      1  C   UNL     1       8.305  47.024  53.740  1.00  0.00     0.063 A 
ATOM      2  C   UNL     1       6.924  46.877  53.969  1.00  0.00     0.016 A 
ATOM      3  C   UNL     1       6.095  46.301  53.006  1.00  0.00     0.006 A 
ATOM      4  C   UNL     1       6.627  45.845  51.797  1.00  0.00    -0.026 A 
ATOM      5  C   UNL     1       7.995  46.008  51.542  1.00  0.00     0.010 A 
ATOM      6  C   UNL     1       8.842  46.604  52.493  1.00  0.00    -0.036 A 
ATOM      7  C   UNL     1      10.296  46.789  52.139  1.00  0.00     0.045 C 
ENDROOT
BRANCH   1   8
ATOM      8  C   UNL     1       9.141  47.617  54.816  1.00  0.00     0.338 C 
ATOM      9  O   UNL     1       8.799  48.714  55.339  1.00  0.00    -0.246 OA
BRANCH   8  10
ATOM     10  O   UNL     1      10.282  46.954  55.280  1.00  0.00    -0.465 OA
ATOM     11  C   UNL     1      11.113  47.480  56.307  1.00  0.00     0.282 C 
ENDBRANCH   8  10
ENDBRANCH   1   8
BRANCH   4  12
ATOM     12  C   UNL     1       5.725  45.269  50.741  1.00  0.00     0.181 C 
BRANCH  12  13
ATOM     13  N   UNL     1       4.371  45.138  51.268  1.00  0.00    -0.248 N 
ATOM     14  C   UNL     1       3.905  44.136  52.032  1.00  0.00     0.137 A 
ATOM     15  N   UNL     1       3.359  45.923  50.936  1.00  0.00    -0.067 NA
ATOM     16  C   UNL     1       2.555  44.368  52.175  1.00  0.00     0.104 A 
ATOM     17  N   UNL     1       2.234  45.476  51.477  1.00  0.00    -0.133 NA
BRANCH  16  18
ATOM     18  C   UNL     1       1.566  43.467  52.839  1.00  0.00     0.203 C 
BRANCH  18  19
ATOM     19  N   UNL     1       1.144  44.050  54.108  1.00  0.00    -0.267 N 
ATOM     20  C   UNL     1      -0.127  44.190  54.529  1.00  0.00     0.109 A 
ATOM     21  N   UNL     1       1.971  44.612  54.974  1.00  0.00    -0.181 NA
ATOM     22  C   UNL     1      -0.112  44.858  55.734  1.00  0.00     0.042 A 
ATOM     23  C   UNL     1       1.225  45.105  55.983  1.00  0.00     0.135 A 
ENDBRANCH  18  19
ENDBRANCH  16  18
ENDBRANCH  12  13
ENDBRANCH   4  12
TORSDOF 6
ENDMDL
MODEL 4
REMARK VINA RESULT:    -7.869      2.758      4.444
REMARK INTER + INTRA:         -10.439
REMARK INTER:                  -9.913
REMARK INTRA:                  -0.526
REMARK UNBOUND:                 0.191
REMARK SMILES COC(=O)c1ccc(Cn2cc(Cn3cccn3)nn2)cc1C
REMARK SMILES IDX 5 1 6 2 7 3 8 4 21 5 22 6 23 7 3 8 4 9 2 10 1 11 9 12 10 13
REMARK SMILES IDX 11 14 20 15 12 16 19 17 13 18 14 19 15 20 18 21 16 22 17 23
REMARK H PARENT
ROOT
ATOM      1  C   UNL     1       6.367  46.837  52.327  1.00  0.00     0.063 A 
ATOM      2  C   UNL     1       5.172  47.244  52.952  1.00  0.00     0.016 A 
ATOM      3  C   UNL     1       3.938  46.752  52.528  1.00  0.00     0.006 A 
ATOM      4  C   UNL     1       3.867  45.830  51.480  1.00  0.00    -0.026 A 
ATOM      5  C   UNL     1       5.044  45.435  50.830  1.00  0.00     0.010 A 
ATOM      6  C   UNL     1       6.295  45.936  51.231  1.00  0.00    -0.036 A 
ATOM      7  C   UNL     1       7.518  45.504  50.463  1.00  0.00     0.045 C 
ENDROOT
BRANCH   1   8
ATOM      8  C   UNL     1       7.653  47.374  52.844  1.00  0.00     0.338 C 
ATOM      9  O   UNL     1       7.973  48.571  52.599  1.00  0.00    -0.246 OA
BRANCH   8  10
ATOM     10  O   UNL     1       8.493  46.579  53.630  1.00  0.00    -0.465 OA
ATOM     11  C   UNL     1       9.701  47.066  54.200  1.00  0.00     0.282 C 
ENDBRANCH   8  10
ENDBRANCH   1   8
BRANCH   4  12
ATOM     12  C   UNL     1       2.533  45.337  50.992  1.00  0.00     0.181 C 
BRANCH  12  13
ATOM     13  N   UNL     1       1.850  44.622  52.064  1.00  0.00    -0.248 N 
ATOM     14  C   UNL     1       0.695  44.975  52.651  1.00  0.00     0.137 A 
ATOM     15  N   UNL     1       2.361  43.592  52.719  1.00  0.00    -0.067 NA
ATOM     16  C   UNL     1       0.510  44.084  53.685  1.00  0.00     0.104 A 
ATOM     17  N   UNL     1       1.561  43.241  53.718  1.00  0.00    -0.133 NA
BRANCH  16  18
ATOM     18  C   UNL     1      -0.572  44.132  54.714  1.00  0.00     0.203 C 
BRANCH  18  19
ATOM     19  N   UNL     1      -0.153  44.969  55.832  1.00  0.00    -0.267 N 
ATOM     20  C   UNL     1      -0.949  45.776  56.558  1.00  0.00     0.109 A 
ATOM     21  N   UNL     1       1.106  45.115  56.214  1.00  0.00    -0.181 NA
ATOM     22  C   UNL     1      -0.165  46.457  57.462  1.00  0.00     0.042 A 
ATOM     23  C   UNL     1       1.121  46.015  57.217  1.00  0.00     0.135 A 
ENDBRANCH  18  19
ENDBRANCH  16  18
ENDBRANCH  12  13
ENDBRANCH   4  12
TORSDOF 6
ENDMDL
MODEL 5
REMARK VINA RESULT:    -7.753      2.865      3.943
REMARK INTER + INTRA:         -10.282
REMARK INTER:                  -9.701
REMARK INTRA:                  -0.581
REMARK UNBOUND:                 0.191
REMARK SMILES COC(=O)c1ccc(Cn2cc(Cn3cccn3)nn2)cc1C
REMARK SMILES IDX 5 1 6 2 7 3 8 4 21 5 22 6 23 7 3 8 4 9 2 10 1 11 9 12 10 13
REMARK SMILES IDX 11 14 20 15 12 16 19 17 13 18 14 19 15 20 18 21 16 22 17 23
REMARK H PARENT
ROOT
ATOM      1  C   UNL     1       7.344  46.491  52.142  1.00  0.00     0.063 A 
ATOM      2  C   UNL     1       7.247  45.950  50.846  1.00  0.00     0.016 A 
ATOM      3  C   UNL     1       6.303  44.966  50.549  1.00  0.00     0.006 A 
ATOM      4  C   UNL     1       5.425  44.509  51.536  1.00  0.00    -0.026 A 
ATOM      5  C   UNL     1       5.527  45.018  52.837  1.00  0.00     0.010 A 
ATOM      6  C   UNL     1       6.485  45.995  53.159  1.00  0.00    -0.036 A 
ATOM      7  C   UNL     1       6.570  46.470  54.587  1.00  0.00     0.045 C 
ENDROOT
BRANCH   1   8
ATOM      8  C   UNL     1       8.349  47.559  52.388  1.00  0.00     0.338 C 
ATOM      9  O   UNL     1       7.993  48.770  52.361  1.00  0.00    -0.246 OA
BRANCH   8  10
ATOM     10  O   UNL     1       9.677  47.233  52.684  1.00  0.00    -0.465 OA
ATOM     11  C   UNL     1      10.136  47.009  54.011  1.00  0.00     0.282 C 
ENDBRANCH   8  10
ENDBRANCH   1   8
BRANCH   4  12
ATOM     12  C   UNL     1       4.442  43.413  51.227  1.00  0.00     0.181 C 
BRANCH  12  13
ATOM     13  N   UNL     1       3.144  43.740  51.807  1.00  0.00    -0.248 N 
ATOM     14  C   UNL     1       2.506  43.058  52.772  1.00  0.00     0.137 A 
ATOM     15  N   UNL     1       2.335  44.682  51.348  1.00  0.00    -0.067 NA
ATOM     16  C   UNL     1       1.271  43.654  52.901  1.00  0.00     0.104 A 
ATOM     17  N   UNL     1       1.180  44.652  51.999  1.00  0.00    -0.133 NA
BRANCH  16  18
ATOM     18  C   UNL     1       0.144  43.184  53.762  1.00  0.00     0.203 C 
BRANCH  18  19
ATOM     19  N   UNL     1      -1.081  43.112  52.975  1.00  0.00    -0.267 N 
ATOM     20  C   UNL     1      -1.313  42.273  51.948  1.00  0.00     0.109 A 
ATOM     21  N   UNL     1      -2.098  43.948  53.113  1.00  0.00    -0.181 NA
ATOM     22  C   UNL     1      -2.547  42.573  51.415  1.00  0.00     0.042 A 
ATOM     23  C   UNL     1      -3.012  43.630  52.175  1.00  0.00     0.135 A 
ENDBRANCH  18  19
ENDBRANCH  16  18
ENDBRANCH  12  13
ENDBRANCH   4  12
TORSDOF 6
ENDMDL
