ligand_20_conformer_3_docked
     RDKit          3D

 52 56  0  0  0  0  0  0  0  0999 V2000
    4.5460   44.5730   55.3680 O   0  0  0  0  0  0  0  0  0  0  0  0
    3.8330   45.3830   54.7140 C   0  0  0  0  0  0  0  0  0  0  0  0
    4.4350   46.3460   53.8330 N   0  0  0  0  0  0  0  0  0  0  0  0
    5.8540   46.4850   53.6390 C   0  0  0  0  0  0  0  0  0  0  0  0
    6.6630   47.0680   54.5620 N   0  0  0  0  0  0  0  0  0  0  0  0
    7.8750   47.0060   53.9880 C   0  0  0  0  0  0  0  0  0  0  0  0
    9.0780   47.4730   54.5130 C   0  0  0  0  0  0  0  0  0  0  0  0
   10.2380   47.3130   53.7350 C   0  0  0  0  0  0  0  0  0  0  0  0
   10.1670   46.7010   52.4650 C   0  0  0  0  0  0  0  0  0  0  0  0
    8.9360   46.2400   51.9630 C   0  0  0  0  0  0  0  0  0  0  0  0
    7.7980   46.4100   52.7620 C   0  0  0  0  0  0  0  0  0  0  0  0
    6.5170   46.0630   52.5180 N   0  0  0  0  0  0  0  0  0  0  0  0
    5.9910   45.4000   51.3070 C   0  0  0  0  0  0  0  0  0  0  0  0
    7.0510   45.2280   50.2120 C   0  0  0  0  0  0  0  0  0  0  0  0
    6.9710   43.7770   49.7450 C   0  0  0  0  0  0  0  0  0  0  0  0
    5.7170   43.1800   50.3710 C   0  0  0  0  0  0  0  0  0  0  0  0
    5.4190   44.0150   51.6050 C   0  0  0  0  0  0  0  0  0  0  0  0
    2.3690   45.3300   54.8480 C   0  0  0  0  0  0  0  0  0  0  0  0
    1.4470   45.4280   53.8280 C   0  0  0  0  0  0  0  0  0  0  0  0
    0.2560   45.3410   54.3670 O   0  0  0  0  0  0  0  0  0  0  0  0
    0.4250   45.1990   55.6630 C   0  0  0  0  0  0  0  0  0  0  0  0
   -0.7080   45.0430   56.6390 C   0  0  0  0  0  0  0  0  0  0  0  0
   -1.1890   46.4270   57.1190 C   0  0  0  0  0  0  0  0  0  0  0  0
   -2.6620   46.3560   57.5540 C   0  0  0  0  0  0  0  0  0  0  0  0
   -3.5590   45.9720   56.5150 O   0  0  0  0  0  0  0  0  0  0  0  0
   -2.9800   45.1470   55.5110 C   0  0  0  0  0  0  0  0  0  0  0  0
   -1.8680   44.2210   56.0350 C   0  0  0  0  0  0  0  0  0  0  0  0
    1.7260   45.1800   56.0200 N   0  0  0  0  0  0  0  0  0  0  0  0
    3.7940   46.9720   53.3070 H   0  0  0  0  0  0  0  0  0  0  0  0
    9.1189   47.9508   55.5030 H   0  0  0  0  0  0  0  0  0  0  0  0
   11.2065   47.6668   54.1182 H   0  0  0  0  0  0  0  0  0  0  0  0
   11.0805   46.5836   51.8635 H   0  0  0  0  0  0  0  0  0  0  0  0
    8.8694   45.7614   50.9748 H   0  0  0  0  0  0  0  0  0  0  0  0
    5.1966   46.0729   50.9519 H   0  0  0  0  0  0  0  0  0  0  0  0
    6.8424   45.9080   49.3729 H   0  0  0  0  0  0  0  0  0  0  0  0
    8.0550   45.4650   50.5938 H   0  0  0  0  0  0  0  0  0  0  0  0
    6.9027   43.7358   48.6479 H   0  0  0  0  0  0  0  0  0  0  0  0
    7.8676   43.2158   50.0470 H   0  0  0  0  0  0  0  0  0  0  0  0
    4.8762   43.2318   49.6636 H   0  0  0  0  0  0  0  0  0  0  0  0
    5.8641   42.1211   50.6301 H   0  0  0  0  0  0  0  0  0  0  0  0
    4.3340   44.0755   51.7757 H   0  0  0  0  0  0  0  0  0  0  0  0
    5.8615   43.5766   52.5116 H   0  0  0  0  0  0  0  0  0  0  0  0
    1.6701   45.5557   52.7585 H   0  0  0  0  0  0  0  0  0  0  0  0
   -0.3383   44.4822   57.5101 H   0  0  0  0  0  0  0  0  0  0  0  0
   -0.5736   46.7499   57.9716 H   0  0  0  0  0  0  0  0  0  0  0  0
   -1.0932   47.1466   56.2926 H   0  0  0  0  0  0  0  0  0  0  0  0
   -2.7459   45.6238   58.3706 H   0  0  0  0  0  0  0  0  0  0  0  0
   -2.9505   47.3718   57.8620 H   0  0  0  0  0  0  0  0  0  0  0  0
   -3.7737   44.5233   55.0739 H   0  0  0  0  0  0  0  0  0  0  0  0
   -2.5175   45.8176   54.7719 H   0  0  0  0  0  0  0  0  0  0  0  0
   -2.2841   43.5609   56.8104 H   0  0  0  0  0  0  0  0  0  0  0  0
   -1.4789   43.6273   55.1947 H   0  0  0  0  0  0  0  0  0  0  0  0
  1  2  2  0
  2  3  1  0
  3  4  1  0
  4  5  2  0
  5  6  1  0
  6  7  2  0
  7  8  1  0
  8  9  2  0
  9 10  1  0
 10 11  2  0
 11 12  1  0
 12 13  1  0
 13 14  1  0
 14 15  1  0
 15 16  1  0
 16 17  1  0
  2 18  1  0
 18 19  2  0
 19 20  1  0
 20 21  1  0
 21 22  1  0
 22 23  1  0
 23 24  1  0
 24 25  1  0
 25 26  1  0
 26 27  1  0
 21 28  2  0
 12  4  1  0
 17 13  1  0
 28 18  1  0
 11  6  1  0
 27 22  1  0
  3 29  1  0
  7 30  1  0
  8 31  1  0
  9 32  1  0
 10 33  1  0
 13 34  1  0
 14 35  1  0
 14 36  1  0
 15 37  1  0
 15 38  1  0
 16 39  1  0
 16 40  1  0
 17 41  1  0
 17 42  1  0
 19 43  1  0
 22 44  1  0
 23 45  1  0
 23 46  1  0
 24 47  1  0
 24 48  1  0
 26 49  1  0
 26 50  1  0
 27 51  1  0
 27 52  1  0
M  END
>  <meeko>  (1) 
{"is_sidechain": [false], "free_energy": -10.039, "intermolecular_energy": -12.387, "internal_energy": -0.056}

$$$$
ligand_20_conformer_3_docked
     RDKit          3D

 52 56  0  0  0  0  0  0  0  0999 V2000
    3.4250   47.5080   53.0810 O   0  0  0  0  0  0  0  0  0  0  0  0
    3.2420   46.2740   53.2680 C   0  0  0  0  0  0  0  0  0  0  0  0
    4.3580   45.3770   53.3940 N   0  0  0  0  0  0  0  0  0  0  0  0
    5.7350   45.7840   53.3000 C   0  0  0  0  0  0  0  0  0  0  0  0
    6.3850   46.3970   54.3240 N   0  0  0  0  0  0  0  0  0  0  0  0
    7.6100   46.6140   53.8200 C   0  0  0  0  0  0  0  0  0  0  0  0
    8.6850   47.2260   54.4590 C   0  0  0  0  0  0  0  0  0  0  0  0
    9.8860   47.3610   53.7400 C   0  0  0  0  0  0  0  0  0  0  0  0
    9.9800   46.8870   52.4140 C   0  0  0  0  0  0  0  0  0  0  0  0
    8.8750   46.2740   51.7950 C   0  0  0  0  0  0  0  0  0  0  0  0
    7.6940   46.1510   52.5370 C   0  0  0  0  0  0  0  0  0  0  0  0
    6.5090   45.6110   52.1840 N   0  0  0  0  0  0  0  0  0  0  0  0
    6.1620   45.0020   50.8840 C   0  0  0  0  0  0  0  0  0  0  0  0
    7.3590   44.9100   49.9290 C   0  0  0  0  0  0  0  0  0  0  0  0
    7.3800   43.4830   49.3850 C   0  0  0  0  0  0  0  0  0  0  0  0
    6.0720   42.8290   49.8120 C   0  0  0  0  0  0  0  0  0  0  0  0
    5.5950   43.5920   51.0360 C   0  0  0  0  0  0  0  0  0  0  0  0
    1.8700   45.7540   53.3690 C   0  0  0  0  0  0  0  0  0  0  0  0
    1.2100   45.3970   54.5260 C   0  0  0  0  0  0  0  0  0  0  0  0
    0.0170   44.9790   54.1840 O   0  0  0  0  0  0  0  0  0  0  0  0
   -0.0650   45.0650   52.8740 C   0  0  0  0  0  0  0  0  0  0  0  0
   -1.2930   44.6960   52.0900 C   0  0  0  0  0  0  0  0  0  0  0  0
   -1.3030   43.1820   51.8030 C   0  0  0  0  0  0  0  0  0  0  0  0
   -2.7460   42.6860   51.6130 C   0  0  0  0  0  0  0  0  0  0  0  0
   -3.5810   42.8700   52.7530 O   0  0  0  0  0  0  0  0  0  0  0  0
   -3.2120   43.9660   53.5820 C   0  0  0  0  0  0  0  0  0  0  0  0
   -2.5840   45.1410   52.8140 C   0  0  0  0  0  0  0  0  0  0  0  0
    1.0630   45.5490   52.3130 N   0  0  0  0  0  0  0  0  0  0  0  0
    4.1410   44.3750   53.5660 H   0  0  0  0  0  0  0  0  0  0  0  0
    8.5977   47.5920   55.4926 H   0  0  0  0  0  0  0  0  0  0  0  0
   10.7566   47.8384   54.2135 H   0  0  0  0  0  0  0  0  0  0  0  0
   10.9240   46.9976   51.8603 H   0  0  0  0  0  0  0  0  0  0  0  0
    8.9370   45.9033   50.7612 H   0  0  0  0  0  0  0  0  0  0  0  0
    5.4017   45.6759   50.4623 H   0  0  0  0  0  0  0  0  0  0  0  0
    7.2415   45.6282   49.1041 H   0  0  0  0  0  0  0  0  0  0  0  0
    8.2985   45.1482   50.4492 H   0  0  0  0  0  0  0  0  0  0  0  0
    7.4555   43.4973   48.2877 H   0  0  0  0  0  0  0  0  0  0  0  0
    8.2450   42.9255   49.7736 H   0  0  0  0  0  0  0  0  0  0  0  0
    5.3286   42.9009   49.0045 H   0  0  0  0  0  0  0  0  0  0  0  0
    6.2126   41.7612   50.0356 H   0  0  0  0  0  0  0  0  0  0  0  0
    4.4958   43.6209   51.0669 H   0  0  0  0  0  0  0  0  0  0  0  0
    5.9293   43.1160   51.9697 H   0  0  0  0  0  0  0  0  0  0  0  0
    1.6118   45.4530   55.5484 H   0  0  0  0  0  0  0  0  0  0  0  0
   -1.2635   45.2323   51.1300 H   0  0  0  0  0  0  0  0  0  0  0  0
   -0.7268   42.9821   50.8876 H   0  0  0  0  0  0  0  0  0  0  0  0
   -0.8512   42.6527   52.6549 H   0  0  0  0  0  0  0  0  0  0  0  0
   -3.1903   43.2324   50.7680 H   0  0  0  0  0  0  0  0  0  0  0  0
   -2.6872   41.6020   51.4354 H   0  0  0  0  0  0  0  0  0  0  0  0
   -4.1132   44.3303   54.0969 H   0  0  0  0  0  0  0  0  0  0  0  0
   -2.4482   43.5957   54.2816 H   0  0  0  0  0  0  0  0  0  0  0  0
   -3.3047   45.5123   52.0706 H   0  0  0  0  0  0  0  0  0  0  0  0
   -2.3301   45.9355   53.5311 H   0  0  0  0  0  0  0  0  0  0  0  0
  1  2  2  0
  2  3  1  0
  3  4  1  0
  4  5  2  0
  5  6  1  0
  6  7  2  0
  7  8  1  0
  8  9  2  0
  9 10  1  0
 10 11  2  0
 11 12  1  0
 12 13  1  0
 13 14  1  0
 14 15  1  0
 15 16  1  0
 16 17  1  0
  2 18  1  0
 18 19  2  0
 19 20  1  0
 20 21  1  0
 21 22  1  0
 22 23  1  0
 23 24  1  0
 24 25  1  0
 25 26  1  0
 26 27  1  0
 21 28  2  0
 12  4  1  0
 17 13  1  0
 28 18  1  0
 11  6  1  0
 27 22  1  0
  3 29  1  0
  7 30  1  0
  8 31  1  0
  9 32  1  0
 10 33  1  0
 13 34  1  0
 14 35  1  0
 14 36  1  0
 15 37  1  0
 15 38  1  0
 16 39  1  0
 16 40  1  0
 17 41  1  0
 17 42  1  0
 19 43  1  0
 22 44  1  0
 23 45  1  0
 23 46  1  0
 24 47  1  0
 24 48  1  0
 26 49  1  0
 26 50  1  0
 27 51  1  0
 27 52  1  0
M  END
>  <meeko>  (2) 
{"is_sidechain": [false], "free_energy": -9.916, "intermolecular_energy": -12.382, "internal_energy": 0.091}

$$$$
ligand_20_conformer_3_docked
     RDKit          3D

 52 56  0  0  0  0  0  0  0  0999 V2000
    2.1290   47.0910   52.7130 O   0  0  0  0  0  0  0  0  0  0  0  0
    3.0620   46.3770   53.1740 C   0  0  0  0  0  0  0  0  0  0  0  0
    2.8010   45.3940   54.1910 N   0  0  0  0  0  0  0  0  0  0  0  0
    1.5050   45.1570   54.7690 C   0  0  0  0  0  0  0  0  0  0  0  0
    1.1030   45.7490   55.9240 N   0  0  0  0  0  0  0  0  0  0  0  0
   -0.1300   45.2510   56.1090 C   0  0  0  0  0  0  0  0  0  0  0  0
   -1.0000   45.5290   57.1600 C   0  0  0  0  0  0  0  0  0  0  0  0
   -2.2510   44.8870   57.1630 C   0  0  0  0  0  0  0  0  0  0  0  0
   -2.5960   43.9920   56.1280 C   0  0  0  0  0  0  0  0  0  0  0  0
   -1.6940   43.7310   55.0800 C   0  0  0  0  0  0  0  0  0  0  0  0
   -0.4570   44.3880   55.1020 C   0  0  0  0  0  0  0  0  0  0  0  0
    0.5700   44.3150   54.2300 N   0  0  0  0  0  0  0  0  0  0  0  0
    0.6390   43.4950   53.0030 C   0  0  0  0  0  0  0  0  0  0  0  0
    0.4440   44.3190   51.7230 C   0  0  0  0  0  0  0  0  0  0  0  0
    1.5710   43.9250   50.7710 C   0  0  0  0  0  0  0  0  0  0  0  0
    2.2580   42.7090   51.3790 C   0  0  0  0  0  0  0  0  0  0  0  0
    1.9700   42.7590   52.8700 C   0  0  0  0  0  0  0  0  0  0  0  0
    4.4280   46.5480   52.6550 C   0  0  0  0  0  0  0  0  0  0  0  0
    4.9300   46.0300   51.4810 C   0  0  0  0  0  0  0  0  0  0  0  0
    6.1820   46.4060   51.3910 O   0  0  0  0  0  0  0  0  0  0  0  0
    6.4520   47.1210   52.4610 C   0  0  0  0  0  0  0  0  0  0  0  0
    7.7880   47.7570   52.7230 C   0  0  0  0  0  0  0  0  0  0  0  0
    8.3950   47.1970   54.0250 C   0  0  0  0  0  0  0  0  0  0  0  0
    9.9280   47.3000   53.9840 C   0  0  0  0  0  0  0  0  0  0  0  0
   10.5340   46.5630   52.9250 O   0  0  0  0  0  0  0  0  0  0  0  0
    9.7110   46.3970   51.7760 C   0  0  0  0  0  0  0  0  0  0  0  0
    8.7490   47.5720   51.5280 C   0  0  0  0  0  0  0  0  0  0  0  0
    5.3890   47.2480   53.2830 N   0  0  0  0  0  0  0  0  0  0  0  0
    3.6080   44.8250   54.5150 H   0  0  0  0  0  0  0  0  0  0  0  0
   -0.7180   46.2277   57.9614 H   0  0  0  0  0  0  0  0  0  0  0  0
   -2.9647   45.0835   57.9767 H   0  0  0  0  0  0  0  0  0  0  0  0
   -3.5771   43.4948   56.1405 H   0  0  0  0  0  0  0  0  0  0  0  0
   -1.9520   43.0335   54.2695 H   0  0  0  0  0  0  0  0  0  0  0  0
   -0.1854   42.7747   53.1100 H   0  0  0  0  0  0  0  0  0  0  0  0
   -0.5320   44.0904   51.2701 H   0  0  0  0  0  0  0  0  0  0  0  0
    0.4679   45.3973   51.9393 H   0  0  0  0  0  0  0  0  0  0  0  0
    1.1603   43.6726   49.7823 H   0  0  0  0  0  0  0  0  0  0  0  0
    2.2820   44.7537   50.6378 H   0  0  0  0  0  0  0  0  0  0  0  0
    1.8518   41.7843   50.9432 H   0  0  0  0  0  0  0  0  0  0  0  0
    3.3398   42.7191   51.1797 H   0  0  0  0  0  0  0  0  0  0  0  0
    1.8896   41.7416   53.2805 H   0  0  0  0  0  0  0  0  0  0  0  0
    2.7739   43.2653   53.4245 H   0  0  0  0  0  0  0  0  0  0  0  0
    4.3809   45.4143   50.7534 H   0  0  0  0  0  0  0  0  0  0  0  0
    7.6366   48.8395   52.8467 H   0  0  0  0  0  0  0  0  0  0  0  0
    8.0149   47.7744   54.8807 H   0  0  0  0  0  0  0  0  0  0  0  0
    8.1092   46.1398   54.1282 H   0  0  0  0  0  0  0  0  0  0  0  0
   10.1998   48.3594   53.8668 H   0  0  0  0  0  0  0  0  0  0  0  0
   10.2997   46.8668   54.9243 H   0  0  0  0  0  0  0  0  0  0  0  0
   10.3617   46.2894   50.8956 H   0  0  0  0  0  0  0  0  0  0  0  0
    9.0906   45.5057   51.9515 H   0  0  0  0  0  0  0  0  0  0  0  0
    9.3336   48.4934   51.3896 H   0  0  0  0  0  0  0  0  0  0  0  0
    8.1544   47.3564   50.6280 H   0  0  0  0  0  0  0  0  0  0  0  0
  1  2  2  0
  2  3  1  0
  3  4  1  0
  4  5  2  0
  5  6  1  0
  6  7  2  0
  7  8  1  0
  8  9  2  0
  9 10  1  0
 10 11  2  0
 11 12  1  0
 12 13  1  0
 13 14  1  0
 14 15  1  0
 15 16  1  0
 16 17  1  0
  2 18  1  0
 18 19  2  0
 19 20  1  0
 20 21  1  0
 21 22  1  0
 22 23  1  0
 23 24  1  0
 24 25  1  0
 25 26  1  0
 26 27  1  0
 21 28  2  0
 12  4  1  0
 17 13  1  0
 28 18  1  0
 11  6  1  0
 27 22  1  0
  3 29  1  0
  7 30  1  0
  8 31  1  0
  9 32  1  0
 10 33  1  0
 13 34  1  0
 14 35  1  0
 14 36  1  0
 15 37  1  0
 15 38  1  0
 16 39  1  0
 16 40  1  0
 17 41  1  0
 17 42  1  0
 19 43  1  0
 22 44  1  0
 23 45  1  0
 23 46  1  0
 24 47  1  0
 24 48  1  0
 26 49  1  0
 26 50  1  0
 27 51  1  0
 27 52  1  0
M  END
>  <meeko>  (3) 
{"is_sidechain": [false], "free_energy": -9.714, "intermolecular_energy": -11.206, "internal_energy": -0.835}

$$$$
ligand_20_conformer_3_docked
     RDKit          3D

 52 56  0  0  0  0  0  0  0  0999 V2000
    2.1200   45.2500   51.7350 O   0  0  0  0  0  0  0  0  0  0  0  0
    2.3700   44.6000   52.7870 C   0  0  0  0  0  0  0  0  0  0  0  0
    3.6260   43.9200   52.9490 N   0  0  0  0  0  0  0  0  0  0  0  0
    4.6670   43.9010   51.9550 C   0  0  0  0  0  0  0  0  0  0  0  0
    4.7510   42.9320   51.0060 N   0  0  0  0  0  0  0  0  0  0  0  0
    5.8490   43.2780   50.3150 C   0  0  0  0  0  0  0  0  0  0  0  0
    6.3980   42.6120   49.2210 C   0  0  0  0  0  0  0  0  0  0  0  0
    7.5650   43.1450   48.6470 C   0  0  0  0  0  0  0  0  0  0  0  0
    8.1500   44.3160   49.1760 C   0  0  0  0  0  0  0  0  0  0  0  0
    7.5720   44.9650   50.2830 C   0  0  0  0  0  0  0  0  0  0  0  0
    6.4070   44.4130   50.8310 C   0  0  0  0  0  0  0  0  0  0  0  0
    5.6670   44.8330   51.8780 N   0  0  0  0  0  0  0  0  0  0  0  0
    5.9170   46.0160   52.7250 C   0  0  0  0  0  0  0  0  0  0  0  0
    4.9030   47.1430   52.4930 C   0  0  0  0  0  0  0  0  0  0  0  0
    4.4130   47.5860   53.8700 C   0  0  0  0  0  0  0  0  0  0  0  0
    5.3130   46.9110   54.8970 C   0  0  0  0  0  0  0  0  0  0  0  0
    5.8870   45.6800   54.2150 C   0  0  0  0  0  0  0  0  0  0  0  0
    1.3670   44.5490   53.8620 C   0  0  0  0  0  0  0  0  0  0  0  0
    0.1260   43.9530   53.7990 C   0  0  0  0  0  0  0  0  0  0  0  0
   -0.4560   44.1370   54.9580 O   0  0  0  0  0  0  0  0  0  0  0  0
    0.3790   44.8200   55.7090 C   0  0  0  0  0  0  0  0  0  0  0  0
    0.0890   45.2170   57.1300 C   0  0  0  0  0  0  0  0  0  0  0  0
    1.0990   46.2830   57.5980 C   0  0  0  0  0  0  0  0  0  0  0  0
    0.4830   47.1450   58.7130 C   0  0  0  0  0  0  0  0  0  0  0  0
   -0.6830   47.8620   58.3190 O   0  0  0  0  0  0  0  0  0  0  0  0
   -1.4310   47.2440   57.2780 C   0  0  0  0  0  0  0  0  0  0  0  0
   -1.3660   45.7070   57.2960 C   0  0  0  0  0  0  0  0  0  0  0  0
    1.5380   45.1000   55.0770 N   0  0  0  0  0  0  0  0  0  0  0  0
    3.7800   43.4180   53.8460 H   0  0  0  0  0  0  0  0  0  0  0  0
    5.9334   41.6992   48.8199 H   0  0  0  0  0  0  0  0  0  0  0  0
    8.0251   42.6470   47.7808 H   0  0  0  0  0  0  0  0  0  0  0  0
    9.0640   44.7240   48.7197 H   0  0  0  0  0  0  0  0  0  0  0  0
    8.0207   45.8766   50.7044 H   0  0  0  0  0  0  0  0  0  0  0  0
    6.9211   46.3543   52.4294 H   0  0  0  0  0  0  0  0  0  0  0  0
    5.3845   47.9846   51.9736 H   0  0  0  0  0  0  0  0  0  0  0  0
    4.0658   46.7983   51.8682 H   0  0  0  0  0  0  0  0  0  0  0  0
    4.4856   48.6796   53.9638 H   0  0  0  0  0  0  0  0  0  0  0  0
    3.3605   47.3051   54.0230 H   0  0  0  0  0  0  0  0  0  0  0  0
    6.1226   47.5913   55.2000 H   0  0  0  0  0  0  0  0  0  0  0  0
    4.7530   46.6415   55.8047 H   0  0  0  0  0  0  0  0  0  0  0  0
    6.9030   45.4749   54.5834 H   0  0  0  0  0  0  0  0  0  0  0  0
    5.2850   44.7822   54.4190 H   0  0  0  0  0  0  0  0  0  0  0  0
   -0.2978   43.4208   52.9346 H   0  0  0  0  0  0  0  0  0  0  0  0
    0.2013   44.3276   57.7674 H   0  0  0  0  0  0  0  0  0  0  0  0
    2.0019   45.7848   57.9807 H   0  0  0  0  0  0  0  0  0  0  0  0
    1.3590   46.9294   56.7468 H   0  0  0  0  0  0  0  0  0  0  0  0
    0.2155   46.4851   59.5514 H   0  0  0  0  0  0  0  0  0  0  0  0
    1.2389   47.8959   58.9865 H   0  0  0  0  0  0  0  0  0  0  0  0
   -2.4833   47.5480   57.3794 H   0  0  0  0  0  0  0  0  0  0  0  0
   -0.9881   47.5726   56.3262 H   0  0  0  0  0  0  0  0  0  0  0  0
   -1.7627   45.3406   58.2543 H   0  0  0  0  0  0  0  0  0  0  0  0
   -1.9659   45.3192   56.4595 H   0  0  0  0  0  0  0  0  0  0  0  0
  1  2  2  0
  2  3  1  0
  3  4  1  0
  4  5  2  0
  5  6  1  0
  6  7  2  0
  7  8  1  0
  8  9  2  0
  9 10  1  0
 10 11  2  0
 11 12  1  0
 12 13  1  0
 13 14  1  0
 14 15  1  0
 15 16  1  0
 16 17  1  0
  2 18  1  0
 18 19  2  0
 19 20  1  0
 20 21  1  0
 21 22  1  0
 22 23  1  0
 23 24  1  0
 24 25  1  0
 25 26  1  0
 26 27  1  0
 21 28  2  0
 12  4  1  0
 17 13  1  0
 28 18  1  0
 11  6  1  0
 27 22  1  0
  3 29  1  0
  7 30  1  0
  8 31  1  0
  9 32  1  0
 10 33  1  0
 13 34  1  0
 14 35  1  0
 14 36  1  0
 15 37  1  0
 15 38  1  0
 16 39  1  0
 16 40  1  0
 17 41  1  0
 17 42  1  0
 19 43  1  0
 22 44  1  0
 23 45  1  0
 23 46  1  0
 24 47  1  0
 24 48  1  0
 26 49  1  0
 26 50  1  0
 27 51  1  0
 27 52  1  0
M  END
>  <meeko>  (4) 
{"is_sidechain": [false], "free_energy": -9.58, "intermolecular_energy": -10.91, "internal_energy": -0.966}

$$$$
ligand_20_conformer_3_docked
     RDKit          3D

 52 56  0  0  0  0  0  0  0  0999 V2000
    3.3100   47.2780   54.1730 O   0  0  0  0  0  0  0  0  0  0  0  0
    3.2930   46.1160   54.6650 C   0  0  0  0  0  0  0  0  0  0  0  0
    4.4900   45.3210   54.7090 N   0  0  0  0  0  0  0  0  0  0  0  0
    5.7640   45.7510   54.1960 C   0  0  0  0  0  0  0  0  0  0  0  0
    6.7220   46.2970   54.9900 N   0  0  0  0  0  0  0  0  0  0  0  0
    7.7150   46.5650   54.1270 C   0  0  0  0  0  0  0  0  0  0  0  0
    8.9480   47.1430   54.4190 C   0  0  0  0  0  0  0  0  0  0  0  0
    9.8470   47.3430   53.3560 C   0  0  0  0  0  0  0  0  0  0  0  0
    9.4930   46.9670   52.0420 C   0  0  0  0  0  0  0  0  0  0  0  0
    8.2390   46.3850   51.7800 C   0  0  0  0  0  0  0  0  0  0  0  0
    7.3670   46.1950   52.8590 C   0  0  0  0  0  0  0  0  0  0  0  0
    6.1250   45.6670   52.8780 N   0  0  0  0  0  0  0  0  0  0  0  0
    5.3620   45.1480   51.7250 C   0  0  0  0  0  0  0  0  0  0  0  0
    4.7140   43.7860   52.0030 C   0  0  0  0  0  0  0  0  0  0  0  0
    3.2570   43.8920   51.5580 C   0  0  0  0  0  0  0  0  0  0  0  0
    3.1230   45.2050   50.7970 C   0  0  0  0  0  0  0  0  0  0  0  0
    4.2490   46.0990   51.2890 C   0  0  0  0  0  0  0  0  0  0  0  0
    2.0370   45.5790   55.2080 C   0  0  0  0  0  0  0  0  0  0  0  0
    1.6180   45.6390   56.5200 C   0  0  0  0  0  0  0  0  0  0  0  0
    0.4540   45.0400   56.5870 O   0  0  0  0  0  0  0  0  0  0  0  0
    0.1610   44.6220   55.3760 C   0  0  0  0  0  0  0  0  0  0  0  0
   -1.1110   43.9010   55.0280 C   0  0  0  0  0  0  0  0  0  0  0  0
   -2.3230   44.8270   55.2500 C   0  0  0  0  0  0  0  0  0  0  0  0
   -3.4880   44.4050   54.3400 C   0  0  0  0  0  0  0  0  0  0  0  0
   -3.1970   44.4750   52.9470 O   0  0  0  0  0  0  0  0  0  0  0  0
   -1.8220   44.2970   52.6240 C   0  0  0  0  0  0  0  0  0  0  0  0
   -1.0770   43.3540   53.5830 C   0  0  0  0  0  0  0  0  0  0  0  0
    1.1130   44.9360   54.4720 N   0  0  0  0  0  0  0  0  0  0  0  0
    4.4160   44.3800   55.1440 H   0  0  0  0  0  0  0  0  0  0  0  0
    9.2101   47.4335   55.4471 H   0  0  0  0  0  0  0  0  0  0  0  0
   10.8311   47.7948   53.5494 H   0  0  0  0  0  0  0  0  0  0  0  0
   10.2024   47.1302   51.2173 H   0  0  0  0  0  0  0  0  0  0  0  0
    7.9528   46.0887   50.7600 H   0  0  0  0  0  0  0  0  0  0  0  0
    6.1113   45.0465   50.9261 H   0  0  0  0  0  0  0  0  0  0  0  0
    5.2280   42.9985   51.4324 H   0  0  0  0  0  0  0  0  0  0  0  0
    4.7832   43.5261   53.0696 H   0  0  0  0  0  0  0  0  0  0  0  0
    2.9987   43.0468   50.9031 H   0  0  0  0  0  0  0  0  0  0  0  0
    2.5776   43.8661   52.4227 H   0  0  0  0  0  0  0  0  0  0  0  0
    3.2203   45.0301   49.7154 H   0  0  0  0  0  0  0  0  0  0  0  0
    2.1402   45.6684   50.9685 H   0  0  0  0  0  0  0  0  0  0  0  0
    4.5997   46.7565   50.4799 H   0  0  0  0  0  0  0  0  0  0  0  0
    3.9229   46.7514   52.1124 H   0  0  0  0  0  0  0  0  0  0  0  0
    2.1605   46.1039   57.3564 H   0  0  0  0  0  0  0  0  0  0  0  0
   -1.2090   43.0329   55.6964 H   0  0  0  0  0  0  0  0  0  0  0  0
   -2.6414   44.7629   56.3010 H   0  0  0  0  0  0  0  0  0  0  0  0
   -2.0342   45.8602   55.0071 H   0  0  0  0  0  0  0  0  0  0  0  0
   -3.7577   43.3669   54.5842 H   0  0  0  0  0  0  0  0  0  0  0  0
   -4.3078   45.1141   54.5273 H   0  0  0  0  0  0  0  0  0  0  0  0
   -1.7553   43.8817   51.6076 H   0  0  0  0  0  0  0  0  0  0  0  0
   -1.3427   45.2835   52.7076 H   0  0  0  0  0  0  0  0  0  0  0  0
   -1.5568   42.3644   53.5607 H   0  0  0  0  0  0  0  0  0  0  0  0
   -0.0284   43.2787   53.2593 H   0  0  0  0  0  0  0  0  0  0  0  0
  1  2  2  0
  2  3  1  0
  3  4  1  0
  4  5  2  0
  5  6  1  0
  6  7  2  0
  7  8  1  0
  8  9  2  0
  9 10  1  0
 10 11  2  0
 11 12  1  0
 12 13  1  0
 13 14  1  0
 14 15  1  0
 15 16  1  0
 16 17  1  0
  2 18  1  0
 18 19  2  0
 19 20  1  0
 20 21  1  0
 21 22  1  0
 22 23  1  0
 23 24  1  0
 24 25  1  0
 25 26  1  0
 26 27  1  0
 21 28  2  0
 12  4  1  0
 17 13  1  0
 28 18  1  0
 11  6  1  0
 27 22  1  0
  3 29  1  0
  7 30  1  0
  8 31  1  0
  9 32  1  0
 10 33  1  0
 13 34  1  0
 14 35  1  0
 14 36  1  0
 15 37  1  0
 15 38  1  0
 16 39  1  0
 16 40  1  0
 17 41  1  0
 17 42  1  0
 19 43  1  0
 22 44  1  0
 23 45  1  0
 23 46  1  0
 24 47  1  0
 24 48  1  0
 26 49  1  0
 26 50  1  0
 27 51  1  0
 27 52  1  0
M  END
>  <meeko>  (5) 
{"is_sidechain": [false], "free_energy": -9.54, "intermolecular_energy": -10.985, "internal_energy": -0.842}

$$$$
