MODEL 1
REMARK VINA RESULT:    -8.849      0.000      0.000
REMARK INTER + INTRA:         -10.870
REMARK INTER:                 -10.401
REMARK INTRA:                  -0.469
REMARK UNBOUND:                -0.469
REMARK SMILES C[C@H]1CC[C@]2(CCN(C(=O)c3ccc(-c4nn[nH]n4)o3)C2)CC1
REMARK SMILES IDX 11 1 12 2 13 3 14 4 20 5 9 6 10 7 8 8 2 9 23 10 3 11 22 12
REMARK SMILES IDX 4 13 5 14 6 15 21 16 7 17 1 18 15 19 16 20 19 21 17 22 18 23
REMARK H PARENT 18 24
ROOT
ATOM      1  C   UNL     1       2.321  43.425  53.012  1.00  0.00     0.192 A 
ATOM      2  C   UNL     1       1.032  42.948  52.855  1.00  0.00     0.057 A 
ATOM      3  C   UNL     1       0.308  43.454  53.914  1.00  0.00     0.055 A 
ATOM      4  C   UNL     1       1.203  44.205  54.651  1.00  0.00     0.176 A 
ATOM      5  O   UNL     1       2.389  44.169  54.093  1.00  0.00    -0.447 OA
ENDROOT
BRANCH   1   6
ATOM      6  C   UNL     1       3.457  43.139  52.112  1.00  0.00     0.289 C 
ATOM      7  O   UNL     1       3.688  41.942  51.793  1.00  0.00    -0.265 OA
BRANCH   6   8
ATOM      8  N   UNL     1       4.307  44.181  51.597  1.00  0.00    -0.335 N 
ATOM      9  C   UNL     1       8.839  47.027  51.938  1.00  0.00    -0.014 C 
ATOM     10  C   UNL     1       8.761  45.689  51.160  1.00  0.00     0.004 C 
ATOM     11  C   UNL     1       7.441  47.562  52.350  1.00  0.00     0.004 C 
ATOM     12  C   UNL     1       7.472  45.605  50.335  1.00  0.00     0.009 C 
ATOM     13  C   UNL     1       6.438  46.422  52.562  1.00  0.00     0.009 C 
ATOM     14  C   UNL     1       6.205  45.595  51.249  1.00  0.00    -0.010 C 
ATOM     15  C   UNL     1       4.987  46.158  50.484  1.00  0.00     0.030 C 
ATOM     16  C   UNL     1       5.762  44.156  51.604  1.00  0.00     0.127 C 
ATOM     17  C   UNL     1       3.778  45.411  51.032  1.00  0.00     0.120 C 
ATOM     18  C   UNL     1       9.761  46.882  53.156  1.00  0.00     0.007 C 
ENDBRANCH   6   8
ENDBRANCH   1   6
BRANCH   4  19
ATOM     19  C   UNL     1       0.900  44.944  55.879  1.00  0.00     0.239 A 
ATOM     20  N   UNL     1      -0.290  44.923  56.510  1.00  0.00    -0.105 NA
ATOM     21  N   UNL     1       1.783  45.732  56.521  1.00  0.00    -0.130 NA
ATOM     22  N   UNL     1      -0.130  45.714  57.558  1.00  0.00    -0.050 NA
ATOM     23  N   UNL     1       1.103  46.191  57.557  1.00  0.00    -0.177 N 
ATOM     24  H   UNL     1       1.488  46.838  58.279  1.00  0.00     0.216 HD
ENDBRANCH   4  19
TORSDOF 3
ENDMDL
MODEL 2
REMARK VINA RESULT:    -8.770      1.692      2.363
REMARK INTER + INTRA:         -10.777
REMARK INTER:                 -10.317
REMARK INTRA:                  -0.460
REMARK UNBOUND:                -0.469
REMARK SMILES C[C@H]1CC[C@]2(CCN(C(=O)c3ccc(-c4nn[nH]n4)o3)C2)CC1
REMARK SMILES IDX 11 1 12 2 13 3 14 4 20 5 9 6 10 7 8 8 2 9 23 10 3 11 22 12
REMARK SMILES IDX 4 13 5 14 6 15 21 16 7 17 1 18 15 19 16 20 19 21 17 22 18 23
REMARK H PARENT 18 24
ROOT
ATOM      1  C   UNL     1       0.848  44.676  54.877  1.00  0.00     0.192 A 
ATOM      2  C   UNL     1      -0.520  44.524  55.019  1.00  0.00     0.057 A 
ATOM      3  C   UNL     1      -0.854  45.175  56.188  1.00  0.00     0.055 A 
ATOM      4  C   UNL     1       0.332  45.680  56.685  1.00  0.00     0.176 A 
ATOM      5  O   UNL     1       1.325  45.367  55.887  1.00  0.00    -0.447 OA
ENDROOT
BRANCH   1   6
ATOM      6  C   UNL     1       1.659  44.137  53.766  1.00  0.00     0.289 C 
ATOM      7  O   UNL     1       1.596  42.904  53.514  1.00  0.00    -0.265 OA
BRANCH   6   8
ATOM      8  N   UNL     1       2.520  44.974  52.970  1.00  0.00    -0.335 N 
ATOM      9  C   UNL     1       7.453  46.703  51.776  1.00  0.00    -0.014 C 
ATOM     10  C   UNL     1       6.838  45.442  51.117  1.00  0.00     0.004 C 
ATOM     11  C   UNL     1       6.411  47.528  52.577  1.00  0.00     0.004 C 
ATOM     12  C   UNL     1       5.373  45.679  50.734  1.00  0.00     0.009 C 
ATOM     13  C   UNL     1       5.293  46.640  53.136  1.00  0.00     0.009 C 
ATOM     14  C   UNL     1       4.484  45.929  51.995  1.00  0.00    -0.010 C 
ATOM     15  C   UNL     1       3.249  46.778  51.620  1.00  0.00     0.030 C 
ATOM     16  C   UNL     1       3.860  44.618  52.528  1.00  0.00     0.127 C 
ATOM     17  C   UNL     1       2.133  46.309  52.545  1.00  0.00     0.120 C 
ATOM     18  C   UNL     1       8.649  46.313  52.655  1.00  0.00     0.007 C 
ENDBRANCH   6   8
ENDBRANCH   1   6
BRANCH   4  19
ATOM     19  C   UNL     1       0.488  46.454  57.919  1.00  0.00     0.239 A 
ATOM     20  N   UNL     1      -0.482  47.202  58.480  1.00  0.00    -0.105 NA
ATOM     21  N   UNL     1       1.626  46.504  58.638  1.00  0.00    -0.130 NA
ATOM     22  N   UNL     1       0.075  47.719  59.563  1.00  0.00    -0.050 NA
ATOM     23  N   UNL     1       1.326  47.301  59.648  1.00  0.00    -0.177 N 
ATOM     24  H   UNL     1       1.987  47.560  60.413  1.00  0.00     0.216 HD
ENDBRANCH   4  19
TORSDOF 3
ENDMDL
MODEL 3
REMARK VINA RESULT:    -8.616      3.684      7.320
REMARK INTER + INTRA:         -10.596
REMARK INTER:                 -10.160
REMARK INTRA:                  -0.436
REMARK UNBOUND:                -0.469
REMARK SMILES C[C@H]1CC[C@]2(CCN(C(=O)c3ccc(-c4nn[nH]n4)o3)C2)CC1
REMARK SMILES IDX 11 1 12 2 13 3 14 4 20 5 9 6 10 7 8 8 2 9 23 10 3 11 22 12
REMARK SMILES IDX 4 13 5 14 6 15 21 16 7 17 1 18 15 19 16 20 19 21 17 22 18 23
REMARK H PARENT 18 24
ROOT
ATOM      1  C   UNL     1       7.317  45.694  51.705  1.00  0.00     0.192 A 
ATOM      2  C   UNL     1       8.429  45.979  50.933  1.00  0.00     0.057 A 
ATOM      3  C   UNL     1       9.312  46.633  51.765  1.00  0.00     0.055 A 
ATOM      4  C   UNL     1       8.681  46.708  52.992  1.00  0.00     0.176 A 
ATOM      5  O   UNL     1       7.499  46.144  52.926  1.00  0.00    -0.447 OA
ENDROOT
BRANCH   1   6
ATOM      6  C   UNL     1       6.101  45.000  51.235  1.00  0.00     0.289 C 
ATOM      7  O   UNL     1       6.212  44.141  50.319  1.00  0.00    -0.265 OA
BRANCH   6   8
ATOM      8  N   UNL     1       4.798  45.279  51.784  1.00  0.00    -0.335 N 
ATOM      9  C   UNL     1      -0.187  43.644  52.890  1.00  0.00    -0.014 C 
ATOM     10  C   UNL     1       0.992  43.420  53.871  1.00  0.00     0.004 C 
ATOM     11  C   UNL     1       0.176  44.606  51.728  1.00  0.00     0.004 C 
ATOM     12  C   UNL     1       1.880  44.666  53.961  1.00  0.00     0.009 C 
ATOM     13  C   UNL     1       1.670  44.541  51.385  1.00  0.00     0.009 C 
ATOM     14  C   UNL     1       2.568  44.980  52.594  1.00  0.00    -0.010 C 
ATOM     15  C   UNL     1       2.889  46.488  52.489  1.00  0.00     0.030 C 
ATOM     16  C   UNL     1       3.961  44.317  52.485  1.00  0.00     0.127 C 
ATOM     17  C   UNL     1       4.162  46.579  51.659  1.00  0.00     0.120 C 
ATOM     18  C   UNL     1      -0.702  42.299  52.361  1.00  0.00     0.007 C 
ENDBRANCH   6   8
ENDBRANCH   1   6
BRANCH   4  19
ATOM     19  C   UNL     1       9.228  47.321  54.205  1.00  0.00     0.239 A 
ATOM     20  N   UNL     1      10.247  46.813  54.925  1.00  0.00    -0.105 NA
ATOM     21  N   UNL     1       8.771  48.469  54.741  1.00  0.00    -0.130 NA
ATOM     22  N   UNL     1      10.416  47.669  55.920  1.00  0.00    -0.050 NA
ATOM     23  N   UNL     1       9.536  48.648  55.803  1.00  0.00    -0.177 N 
ATOM     24  H   UNL     1       9.458  49.456  56.459  1.00  0.00     0.216 HD
ENDBRANCH   4  19
TORSDOF 3
ENDMDL
MODEL 4
REMARK VINA RESULT:    -8.506      3.384      6.155
REMARK INTER + INTRA:         -10.468
REMARK INTER:                 -10.442
REMARK INTRA:                  -0.025
REMARK UNBOUND:                -0.469
REMARK SMILES C[C@H]1CC[C@]2(CCN(C(=O)c3ccc(-c4nn[nH]n4)o3)C2)CC1
REMARK SMILES IDX 11 1 12 2 13 3 14 4 20 5 9 6 10 7 8 8 2 9 23 10 3 11 22 12
REMARK SMILES IDX 4 13 5 14 6 15 21 16 7 17 1 18 15 19 16 20 19 21 17 22 18 23
REMARK H PARENT 18 24
ROOT
ATOM      1  C   UNL     1       4.552  42.458  50.836  1.00  0.00     0.192 A 
ATOM      2  C   UNL     1       5.853  42.220  50.427  1.00  0.00     0.057 A 
ATOM      3  C   UNL     1       5.760  41.379  49.338  1.00  0.00     0.055 A 
ATOM      4  C   UNL     1       4.409  41.156  49.155  1.00  0.00     0.176 A 
ATOM      5  O   UNL     1       3.717  41.808  50.058  1.00  0.00    -0.447 OA
ENDROOT
BRANCH   1   6
ATOM      6  C   UNL     1       4.154  43.306  51.979  1.00  0.00     0.289 C 
ATOM      7  O   UNL     1       3.280  42.873  52.777  1.00  0.00    -0.265 OA
BRANCH   6   8
ATOM      8  N   UNL     1       4.728  44.608  52.202  1.00  0.00    -0.335 N 
ATOM      9  C   UNL     1       8.951  47.615  53.570  1.00  0.00    -0.014 C 
ATOM     10  C   UNL     1       8.697  47.164  52.109  1.00  0.00     0.004 C 
ATOM     11  C   UNL     1       7.740  47.341  54.500  1.00  0.00     0.004 C 
ATOM     12  C   UNL     1       7.216  47.297  51.740  1.00  0.00     0.009 C 
ATOM     13  C   UNL     1       6.928  46.128  54.030  1.00  0.00     0.009 C 
ATOM     14  C   UNL     1       6.323  46.346  52.599  1.00  0.00    -0.010 C 
ATOM     15  C   UNL     1       4.891  46.914  52.716  1.00  0.00     0.030 C 
ATOM     16  C   UNL     1       6.103  44.980  51.906  1.00  0.00     0.127 C 
ATOM     17  C   UNL     1       3.974  45.701  52.793  1.00  0.00     0.120 C 
ATOM     18  C   UNL     1      10.229  46.962  54.113  1.00  0.00     0.007 C 
ENDBRANCH   6   8
ENDBRANCH   1   6
BRANCH   4  19
ATOM     19  C   UNL     1       3.809  40.319  48.113  1.00  0.00     0.239 A 
ATOM     20  N   UNL     1       3.054  39.229  48.349  1.00  0.00    -0.105 NA
ATOM     21  N   UNL     1       3.944  40.547  46.792  1.00  0.00    -0.130 NA
ATOM     22  N   UNL     1       2.721  38.783  47.149  1.00  0.00    -0.050 NA
ATOM     23  N   UNL     1       3.253  39.571  46.231  1.00  0.00    -0.177 N 
ATOM     24  H   UNL     1       3.140  39.442  45.202  1.00  0.00     0.216 HD
ENDBRANCH   4  19
TORSDOF 3
ENDMDL
MODEL 5
REMARK VINA RESULT:    -8.269      3.092      5.223
REMARK INTER + INTRA:         -10.189
REMARK INTER:                  -9.731
REMARK INTRA:                  -0.458
REMARK UNBOUND:                -0.469
REMARK SMILES C[C@H]1CC[C@]2(CCN(C(=O)c3ccc(-c4nn[nH]n4)o3)C2)CC1
REMARK SMILES IDX 11 1 12 2 13 3 14 4 20 5 9 6 10 7 8 8 2 9 23 10 3 11 22 12
REMARK SMILES IDX 4 13 5 14 6 15 21 16 7 17 1 18 15 19 16 20 19 21 17 22 18 23
REMARK H PARENT 18 24
ROOT
ATOM      1  C   UNL     1       3.594  43.716  52.671  1.00  0.00     0.192 A 
ATOM      2  C   UNL     1       2.301  43.222  52.663  1.00  0.00     0.057 A 
ATOM      3  C   UNL     1       2.242  42.331  51.612  1.00  0.00     0.055 A 
ATOM      4  C   UNL     1       3.502  42.340  51.045  1.00  0.00     0.176 A 
ATOM      5  O   UNL     1       4.283  43.172  51.694  1.00  0.00    -0.447 OA
ENDROOT
BRANCH   1   6
ATOM      6  C   UNL     1       4.125  44.712  53.624  1.00  0.00     0.289 C 
ATOM      7  O   UNL     1       3.595  44.799  54.765  1.00  0.00    -0.265 OA
BRANCH   6   8
ATOM      8  N   UNL     1       5.220  45.586  53.288  1.00  0.00    -0.335 N 
ATOM      9  C   UNL     1      10.092  47.520  54.416  1.00  0.00    -0.014 C 
ATOM     10  C   UNL     1       9.888  46.237  53.571  1.00  0.00     0.004 C 
ATOM     11  C   UNL     1       8.770  48.300  54.649  1.00  0.00     0.004 C 
ATOM     12  C   UNL     1       8.744  46.415  52.566  1.00  0.00     0.009 C 
ATOM     13  C   UNL     1       7.555  47.364  54.658  1.00  0.00     0.009 C 
ATOM     14  C   UNL     1       7.374  46.624  53.287  1.00  0.00    -0.010 C 
ATOM     15  C   UNL     1       6.409  47.422  52.383  1.00  0.00     0.030 C 
ATOM     16  C   UNL     1       6.627  45.287  53.503  1.00  0.00     0.127 C 
ATOM     17  C   UNL     1       5.016  46.905  52.714  1.00  0.00     0.120 C 
ATOM     18  C   UNL     1      10.777  47.177  55.746  1.00  0.00     0.007 C 
ENDBRANCH   6   8
ENDBRANCH   1   6
BRANCH   4  19
ATOM     19  C   UNL     1       3.932  41.549  49.890  1.00  0.00     0.239 A 
ATOM     20  N   UNL     1       3.161  40.647  49.252  1.00  0.00    -0.105 NA
ATOM     21  N   UNL     1       5.155  41.635  49.331  1.00  0.00    -0.130 NA
ATOM     22  N   UNL     1       3.928  40.173  48.283  1.00  0.00    -0.050 NA
ATOM     23  N   UNL     1       5.110  40.764  48.338  1.00  0.00    -0.177 N 
ATOM     24  H   UNL     1       5.899  40.572  47.683  1.00  0.00     0.216 HD
ENDBRANCH   4  19
TORSDOF 3
ENDMDL
