MODEL 1
REMARK VINA RESULT:    -8.450      0.000      0.000
REMARK INTER + INTRA:         -10.960
REMARK INTER:                 -10.426
REMARK INTRA:                  -0.534
REMARK UNBOUND:                -0.534
REMARK SMILES O=C(c1c[nH]nc1-c1ccc(Cl)s1)N1CCN(CC2CC2)CC1
REMARK SMILES IDX 1 1 2 2 14 3 15 4 16 5 17 6 22 7 23 8 3 9 4 10 7 11 5 12
REMARK SMILES IDX 6 13 8 15 9 16 13 17 10 18 11 19 12 20 18 21 19 22 20 23
REMARK SMILES IDX 21 24
REMARK H PARENT 5 14
ROOT
ATOM      1  O   UNL     1       1.600  46.546  52.463  1.00  0.00    -0.269 OA
ATOM      2  C   UNL     1       2.502  45.718  52.764  1.00  0.00     0.257 C 
ATOM      3  N   UNL     1       3.620  46.143  53.568  1.00  0.00    -0.336 N 
ATOM      4  C   UNL     1       4.118  45.298  54.663  1.00  0.00     0.135 C 
ATOM      5  C   UNL     1       5.652  45.402  54.805  1.00  0.00     0.106 C 
ATOM      6  N   UNL     1       6.223  46.553  54.069  1.00  0.00    -0.300 NA
ATOM      7  C   UNL     1       5.376  47.748  54.246  1.00  0.00     0.106 C 
ATOM      8  C   UNL     1       4.059  47.542  53.492  1.00  0.00     0.135 C 
ENDROOT
BRANCH   2   9
ATOM      9  C   UNL     1       2.370  44.325  52.297  1.00  0.00     0.086 A 
ATOM     10  C   UNL     1       1.298  43.491  52.534  1.00  0.00     0.119 A 
ATOM     11  C   UNL     1       3.292  43.531  51.626  1.00  0.00     0.115 A 
ATOM     12  N   UNL     1       1.590  42.273  52.046  1.00  0.00    -0.284 N 
ATOM     13  N   UNL     1       2.795  42.286  51.496  1.00  0.00    -0.174 NA
ATOM     14  H   UNL     1       0.976  41.432  52.091  1.00  0.00     0.189 HD
BRANCH  11  15
ATOM     15  C   UNL     1       4.587  43.938  51.059  1.00  0.00     0.057 A 
ATOM     16  C   UNL     1       5.043  45.242  50.892  1.00  0.00     0.024 A 
ATOM     17  S   UNL     1       5.732  42.879  50.426  1.00  0.00    -0.122 S 
ATOM     18  C   UNL     1       6.302  45.314  50.287  1.00  0.00     0.033 A 
ATOM     19  C   UNL     1       6.826  44.070  49.971  1.00  0.00     0.094 A 
ATOM     20  Cl  UNL     1       8.374  43.778  49.207  1.00  0.00    -0.072 Cl
ENDBRANCH  11  15
ENDBRANCH   2   9
BRANCH   6  21
ATOM     21  C   UNL     1       7.609  46.804  54.509  1.00  0.00     0.088 C 
BRANCH  21  22
ATOM     22  C   UNL     1       8.421  47.449  53.377  1.00  0.00     0.003 C 
ATOM     23  C   UNL     1       9.018  46.450  52.397  1.00  0.00     0.005 C 
ATOM     24  C   UNL     1       9.919  47.181  53.378  1.00  0.00     0.005 C 
ENDBRANCH  21  22
ENDBRANCH   6  21
TORSDOF 4
ENDMDL
MODEL 2
REMARK VINA RESULT:    -7.910      1.287      1.481
REMARK INTER + INTRA:         -10.293
REMARK INTER:                  -9.959
REMARK INTRA:                  -0.334
REMARK UNBOUND:                -0.534
REMARK SMILES O=C(c1c[nH]nc1-c1ccc(Cl)s1)N1CCN(CC2CC2)CC1
REMARK SMILES IDX 1 1 2 2 14 3 15 4 16 5 17 6 22 7 23 8 3 9 4 10 7 11 5 12
REMARK SMILES IDX 6 13 8 15 9 16 13 17 10 18 11 19 12 20 18 21 19 22 20 23
REMARK SMILES IDX 21 24
REMARK H PARENT 5 14
ROOT
ATOM      1  O   UNL     1       1.668  46.758  52.357  1.00  0.00    -0.269 OA
ATOM      2  C   UNL     1       2.342  45.910  53.001  1.00  0.00     0.257 C 
ATOM      3  N   UNL     1       3.611  46.292  53.570  1.00  0.00    -0.336 N 
ATOM      4  C   UNL     1       3.976  45.873  54.931  1.00  0.00     0.135 C 
ATOM      5  C   UNL     1       5.488  45.584  55.048  1.00  0.00     0.106 C 
ATOM      6  N   UNL     1       6.266  46.111  53.903  1.00  0.00    -0.300 NA
ATOM      7  C   UNL     1       5.791  47.459  53.536  1.00  0.00     0.106 C 
ATOM      8  C   UNL     1       4.397  47.344  52.914  1.00  0.00     0.135 C 
ENDROOT
BRANCH   2   9
ATOM      9  C   UNL     1       1.797  44.550  53.171  1.00  0.00     0.086 A 
ATOM     10  C   UNL     1       0.655  44.219  53.870  1.00  0.00     0.119 A 
ATOM     11  C   UNL     1       2.330  43.332  52.769  1.00  0.00     0.115 A 
ATOM     12  N   UNL     1       0.544  42.880  53.893  1.00  0.00    -0.284 N 
ATOM     13  N   UNL     1       1.552  42.333  53.231  1.00  0.00    -0.174 NA
ATOM     14  H   UNL     1      -0.213  42.336  54.361  1.00  0.00     0.189 HD
BRANCH  11  15
ATOM     15  C   UNL     1       3.507  43.100  51.918  1.00  0.00     0.057 A 
ATOM     16  C   UNL     1       4.590  43.959  51.755  1.00  0.00     0.024 A 
ATOM     17  S   UNL     1       3.716  41.767  50.913  1.00  0.00    -0.122 S 
ATOM     18  C   UNL     1       5.541  43.482  50.846  1.00  0.00     0.033 A 
ATOM     19  C   UNL     1       5.199  42.258  50.293  1.00  0.00     0.094 A 
ATOM     20  Cl  UNL     1       6.148  41.366  49.123  1.00  0.00    -0.072 Cl
ENDBRANCH  11  15
ENDBRANCH   2   9
BRANCH   6  21
ATOM     21  C   UNL     1       7.707  46.115  54.224  1.00  0.00     0.088 C 
BRANCH  21  22
ATOM     22  C   UNL     1       8.453  47.106  53.320  1.00  0.00     0.003 C 
ATOM     23  C   UNL     1       9.416  46.449  52.343  1.00  0.00     0.005 C 
ATOM     24  C   UNL     1       9.955  47.223  53.533  1.00  0.00     0.005 C 
ENDBRANCH  21  22
ENDBRANCH   6  21
TORSDOF 4
ENDMDL
MODEL 3
REMARK VINA RESULT:    -7.865      2.595      4.028
REMARK INTER + INTRA:         -10.238
REMARK INTER:                  -9.444
REMARK INTRA:                  -0.795
REMARK UNBOUND:                -0.534
REMARK SMILES O=C(c1c[nH]nc1-c1ccc(Cl)s1)N1CCN(CC2CC2)CC1
REMARK SMILES IDX 1 1 2 2 14 3 15 4 16 5 17 6 22 7 23 8 3 9 4 10 7 11 5 12
REMARK SMILES IDX 6 13 8 15 9 16 13 17 10 18 11 19 12 20 18 21 19 22 20 23
REMARK SMILES IDX 21 24
REMARK H PARENT 5 14
ROOT
ATOM      1  O   UNL     1       2.387  42.289  52.019  1.00  0.00    -0.269 OA
ATOM      2  C   UNL     1       2.810  43.464  52.189  1.00  0.00     0.257 C 
ATOM      3  N   UNL     1       3.897  43.955  51.381  1.00  0.00    -0.336 N 
ATOM      4  C   UNL     1       3.855  45.310  50.813  1.00  0.00     0.135 C 
ATOM      5  C   UNL     1       5.259  45.951  50.773  1.00  0.00     0.106 C 
ATOM      6  N   UNL     1       6.348  44.967  50.977  1.00  0.00    -0.300 NA
ATOM      7  C   UNL     1       6.071  43.730  50.223  1.00  0.00     0.106 C 
ATOM      8  C   UNL     1       4.893  43.001  50.874  1.00  0.00     0.135 C 
ENDROOT
BRANCH   2   9
ATOM      9  C   UNL     1       2.159  44.312  53.206  1.00  0.00     0.086 A 
ATOM     10  C   UNL     1       0.801  44.410  53.426  1.00  0.00     0.119 A 
ATOM     11  C   UNL     1       2.725  45.239  54.072  1.00  0.00     0.115 A 
ATOM     12  N   UNL     1       0.589  45.360  54.354  1.00  0.00    -0.284 N 
ATOM     13  N   UNL     1       1.745  45.868  54.750  1.00  0.00    -0.174 NA
ATOM     14  H   UNL     1      -0.341  45.667  54.714  1.00  0.00     0.189 HD
BRANCH  11  15
ATOM     15  C   UNL     1       4.153  45.493  54.312  1.00  0.00     0.057 A 
ATOM     16  C   UNL     1       5.114  44.547  54.656  1.00  0.00     0.024 A 
ATOM     17  S   UNL     1       4.873  47.014  54.291  1.00  0.00    -0.122 S 
ATOM     18  C   UNL     1       6.384  45.099  54.858  1.00  0.00     0.033 A 
ATOM     19  C   UNL     1       6.415  46.473  54.683  1.00  0.00     0.094 A 
ATOM     20  Cl  UNL     1       7.828  47.492  54.855  1.00  0.00    -0.072 Cl
ENDBRANCH  11  15
ENDBRANCH   2   9
BRANCH   6  21
ATOM     21  C   UNL     1       7.646  45.556  50.593  1.00  0.00     0.088 C 
BRANCH  21  22
ATOM     22  C   UNL     1       8.291  46.258  51.796  1.00  0.00     0.003 C 
ATOM     23  C   UNL     1       8.861  47.632  51.478  1.00  0.00     0.005 C 
ATOM     24  C   UNL     1       9.797  46.464  51.735  1.00  0.00     0.005 C 
ENDBRANCH  21  22
ENDBRANCH   6  21
TORSDOF 4
ENDMDL
MODEL 4
REMARK VINA RESULT:    -7.785      4.063      5.138
REMARK INTER + INTRA:         -10.139
REMARK INTER:                  -9.412
REMARK INTRA:                  -0.727
REMARK UNBOUND:                -0.534
REMARK SMILES O=C(c1c[nH]nc1-c1ccc(Cl)s1)N1CCN(CC2CC2)CC1
REMARK SMILES IDX 1 1 2 2 14 3 15 4 16 5 17 6 22 7 23 8 3 9 4 10 7 11 5 12
REMARK SMILES IDX 6 13 8 15 9 16 13 17 10 18 11 19 12 20 18 21 19 22 20 23
REMARK SMILES IDX 21 24
REMARK H PARENT 5 14
ROOT
ATOM      1  O   UNL     1       1.649  46.642  52.617  1.00  0.00    -0.269 OA
ATOM      2  C   UNL     1       2.376  45.733  53.100  1.00  0.00     0.257 C 
ATOM      3  N   UNL     1       3.727  46.039  53.500  1.00  0.00    -0.336 N 
ATOM      4  C   UNL     1       4.268  45.518  54.764  1.00  0.00     0.135 C 
ATOM      5  C   UNL     1       5.769  45.179  54.639  1.00  0.00     0.106 C 
ATOM      6  N   UNL     1       6.393  45.761  53.428  1.00  0.00    -0.300 NA
ATOM      7  C   UNL     1       5.922  47.143  53.221  1.00  0.00     0.106 C 
ATOM      8  C   UNL     1       4.449  47.111  52.804  1.00  0.00     0.135 C 
ENDROOT
BRANCH   2   9
ATOM      9  C   UNL     1       1.809  44.381  53.260  1.00  0.00     0.086 A 
ATOM     10  C   UNL     1       2.105  43.284  52.478  1.00  0.00     0.119 A 
ATOM     11  C   UNL     1       0.820  43.938  54.130  1.00  0.00     0.115 A 
ATOM     12  N   UNL     1       1.313  42.266  52.859  1.00  0.00    -0.284 N 
ATOM     13  N   UNL     1       0.532  42.651  53.856  1.00  0.00    -0.174 NA
ATOM     14  H   UNL     1       1.300  41.311  52.439  1.00  0.00     0.189 HD
BRANCH  11  15
ATOM     15  C   UNL     1       0.197  44.679  55.237  1.00  0.00     0.057 A 
ATOM     16  C   UNL     1       0.857  45.268  56.312  1.00  0.00     0.024 A 
ATOM     17  S   UNL     1      -1.461  44.877  55.445  1.00  0.00    -0.122 S 
ATOM     18  C   UNL     1      -0.011  45.869  57.230  1.00  0.00     0.033 A 
ATOM     19  C   UNL     1      -1.346  45.742  56.880  1.00  0.00     0.094 A 
ATOM     20  Cl  UNL     1      -2.703  46.369  57.792  1.00  0.00    -0.072 Cl
ENDBRANCH  11  15
ENDBRANCH   2   9
BRANCH   6  21
ATOM     21  C   UNL     1       7.864  45.702  53.535  1.00  0.00     0.088 C 
BRANCH  21  22
ATOM     22  C   UNL     1       8.495  46.961  52.922  1.00  0.00     0.003 C 
ATOM     23  C   UNL     1       9.628  46.674  51.948  1.00  0.00     0.005 C 
ATOM     24  C   UNL     1       9.934  47.260  53.316  1.00  0.00     0.005 C 
ENDBRANCH  21  22
ENDBRANCH   6  21
TORSDOF 4
ENDMDL
MODEL 5
REMARK VINA RESULT:    -7.475      3.402      4.980
REMARK INTER + INTRA:          -9.757
REMARK INTER:                  -9.261
REMARK INTRA:                  -0.496
REMARK UNBOUND:                -0.534
REMARK SMILES O=C(c1c[nH]nc1-c1ccc(Cl)s1)N1CCN(CC2CC2)CC1
REMARK SMILES IDX 1 1 2 2 14 3 15 4 16 5 17 6 22 7 23 8 3 9 4 10 7 11 5 12
REMARK SMILES IDX 6 13 8 15 9 16 13 17 10 18 11 19 12 20 18 21 19 22 20 23
REMARK SMILES IDX 21 24
REMARK H PARENT 5 14
ROOT
ATOM      1  O   UNL     1       2.722  43.062  52.473  1.00  0.00    -0.269 OA
ATOM      2  C   UNL     1       3.061  44.170  52.969  1.00  0.00     0.257 C 
ATOM      3  N   UNL     1       4.110  44.938  52.346  1.00  0.00    -0.336 N 
ATOM      4  C   UNL     1       3.971  46.391  52.174  1.00  0.00     0.135 C 
ATOM      5  C   UNL     1       5.326  47.112  52.337  1.00  0.00     0.106 C 
ATOM      6  N   UNL     1       6.482  46.187  52.281  1.00  0.00    -0.300 NA
ATOM      7  C   UNL     1       6.292  45.191  51.210  1.00  0.00     0.106 C 
ATOM      8  C   UNL     1       5.169  44.232  51.614  1.00  0.00     0.135 C 
ENDROOT
BRANCH   2   9
ATOM      9  C   UNL     1       2.354  44.657  54.168  1.00  0.00     0.086 A 
ATOM     10  C   UNL     1       2.947  45.109  55.328  1.00  0.00     0.119 A 
ATOM     11  C   UNL     1       0.991  44.681  54.437  1.00  0.00     0.115 A 
ATOM     12  N   UNL     1       1.982  45.362  56.229  1.00  0.00    -0.284 N 
ATOM     13  N   UNL     1       0.795  45.105  55.701  1.00  0.00    -0.174 NA
ATOM     14  H   UNL     1       2.128  45.703  57.204  1.00  0.00     0.189 HD
BRANCH  11  15
ATOM     15  C   UNL     1      -0.115  44.376  53.516  1.00  0.00     0.057 A 
ATOM     16  C   UNL     1      -1.070  43.376  53.674  1.00  0.00     0.024 A 
ATOM     17  S   UNL     1      -0.375  45.145  52.042  1.00  0.00    -0.122 S 
ATOM     18  C   UNL     1      -1.975  43.303  52.610  1.00  0.00     0.033 A 
ATOM     19  C   UNL     1      -1.722  44.236  51.616  1.00  0.00     0.094 A 
ATOM     20  Cl  UNL     1      -2.646  44.433  50.142  1.00  0.00    -0.072 Cl
ENDBRANCH  11  15
ENDBRANCH   2   9
BRANCH   6  21
ATOM     21  C   UNL     1       7.734  46.947  52.097  1.00  0.00     0.088 C 
BRANCH  21  22
ATOM     22  C   UNL     1       8.897  46.240  52.809  1.00  0.00     0.003 C 
ATOM     23  C   UNL     1       9.892  47.189  53.460  1.00  0.00     0.005 C 
ATOM     24  C   UNL     1      10.280  46.428  52.203  1.00  0.00     0.005 C 
ENDBRANCH  21  22
ENDBRANCH   6  21
TORSDOF 4
ENDMDL
