MODEL 1
REMARK VINA RESULT:    -8.376      0.000      0.000
REMARK INTER + INTRA:         -12.379
REMARK INTER:                 -11.559
REMARK INTRA:                  -0.819
REMARK UNBOUND:                -0.819
REMARK SMILES O=C(Nc1cccc(C(=O)Nc2ccc(Cl)cn2)c1)N[C@@H](CO)c1ccc(F)c(Cl)c1
REMARK SMILES IDX 1 1 2 2 3 3 20 4 4 7 5 8 19 9 6 10 8 11 7 12 9 13 10 14
REMARK SMILES IDX 11 15 12 17 13 18 18 19 14 20 17 21 15 22 16 23 21 24 22 25
REMARK SMILES IDX 23 26 24 28 25 29 31 30 26 31 29 32 27 33 30 34 28 35
REMARK H PARENT 3 5 20 6 11 16 23 27
ROOT
ATOM      1  O   UNL     1       2.729  46.387  53.017  1.00  0.00    -0.248 OA
ATOM      2  C   UNL     1       3.484  45.419  53.315  1.00  0.00     0.319 C 
ATOM      3  N   UNL     1       2.923  44.142  53.664  1.00  0.00    -0.308 N 
ATOM      4  N   UNL     1       4.908  45.577  53.262  1.00  0.00    -0.329 N 
ATOM      5  H   UNL     1       3.555  43.310  53.632  1.00  0.00     0.171 HD
ATOM      6  H   UNL     1       5.507  44.751  53.481  1.00  0.00     0.166 HD
ENDROOT
BRANCH   3   7
ATOM      7  C   UNL     1       1.523  43.921  53.910  1.00  0.00     0.043 A 
ATOM      8  C   UNL     1       0.821  43.006  53.112  1.00  0.00     0.026 A 
ATOM      9  C   UNL     1       0.859  44.557  54.975  1.00  0.00     0.040 A 
ATOM     10  C   UNL     1      -0.533  42.755  53.347  1.00  0.00     0.003 A 
ATOM     11  C   UNL     1      -0.507  44.312  55.217  1.00  0.00     0.042 A 
ATOM     12  C   UNL     1      -1.194  43.402  54.395  1.00  0.00     0.014 A 
BRANCH  11  13
ATOM     13  C   UNL     1      -1.205  44.967  56.349  1.00  0.00     0.256 C 
ATOM     14  O   UNL     1      -1.375  44.328  57.423  1.00  0.00    -0.269 OA
ATOM     15  N   UNL     1      -1.715  46.306  56.222  1.00  0.00    -0.307 N 
ATOM     16  H   UNL     1      -1.890  46.678  55.260  1.00  0.00     0.171 HD
BRANCH  15  17
ATOM     17  C   UNL     1      -2.038  47.146  57.343  1.00  0.00     0.132 A 
ATOM     18  C   UNL     1      -1.011  47.691  58.127  1.00  0.00     0.049 A 
ATOM     19  N   UNL     1      -3.338  47.390  57.679  1.00  0.00    -0.238 NA
ATOM     20  C   UNL     1      -1.335  48.485  59.229  1.00  0.00     0.026 A 
ATOM     21  C   UNL     1      -3.676  48.163  58.746  1.00  0.00     0.134 A 
ATOM     22  C   UNL     1      -2.676  48.725  59.543  1.00  0.00     0.059 A 
ATOM     23  Cl  UNL     1      -3.100  49.716  60.928  1.00  0.00    -0.083 Cl
ENDBRANCH  15  17
ENDBRANCH  11  13
ENDBRANCH   3   7
BRANCH   4  24
ATOM     24  C   UNL     1       5.544  46.845  52.882  1.00  0.00     0.139 C 
BRANCH  24  25
ATOM     25  C   UNL     1       5.373  47.904  53.994  1.00  0.00     0.185 C 
BRANCH  25  26
ATOM     26  O   UNL     1       4.272  48.740  53.751  1.00  0.00    -0.394 OA
ATOM     27  H   UNL     1       3.537  48.161  53.420  1.00  0.00     0.210 HD
ENDBRANCH  25  26
ENDBRANCH  24  25
BRANCH  24  28
ATOM     28  C   UNL     1       6.984  46.598  52.458  1.00  0.00    -0.022 A 
ATOM     29  C   UNL     1       8.007  47.296  53.128  1.00  0.00     0.009 A 
ATOM     30  C   UNL     1       7.330  45.775  51.363  1.00  0.00     0.029 A 
ATOM     31  C   UNL     1       9.343  47.145  52.743  1.00  0.00     0.041 A 
ATOM     32  C   UNL     1       8.669  45.618  50.985  1.00  0.00     0.077 A 
ATOM     33  C   UNL     1       9.677  46.303  51.681  1.00  0.00     0.141 A 
ATOM     34  Cl  UNL     1       9.077  44.571  49.634  1.00  0.00    -0.081 Cl
ATOM     35  F   UNL     1      10.978  46.161  51.322  1.00  0.00    -0.205 F 
ENDBRANCH  24  28
ENDBRANCH   4  24
TORSDOF 7
ENDMDL
MODEL 2
REMARK VINA RESULT:    -8.371      1.321      1.807
REMARK INTER + INTRA:         -12.372
REMARK INTER:                 -11.665
REMARK INTRA:                  -0.707
REMARK UNBOUND:                -0.819
REMARK SMILES O=C(Nc1cccc(C(=O)Nc2ccc(Cl)cn2)c1)N[C@@H](CO)c1ccc(F)c(Cl)c1
REMARK SMILES IDX 1 1 2 2 3 3 20 4 4 7 5 8 19 9 6 10 8 11 7 12 9 13 10 14
REMARK SMILES IDX 11 15 12 17 13 18 18 19 14 20 17 21 15 22 16 23 21 24 22 25
REMARK SMILES IDX 23 26 24 28 25 29 31 30 26 31 29 32 27 33 30 34 28 35
REMARK H PARENT 3 5 20 6 11 16 23 27
ROOT
ATOM      1  O   UNL     1       2.182  46.480  53.016  1.00  0.00    -0.248 OA
ATOM      2  C   UNL     1       2.870  45.484  53.376  1.00  0.00     0.319 C 
ATOM      3  N   UNL     1       2.230  44.316  53.915  1.00  0.00    -0.308 N 
ATOM      4  N   UNL     1       4.294  45.497  53.205  1.00  0.00    -0.329 N 
ATOM      5  H   UNL     1       2.781  43.428  53.939  1.00  0.00     0.171 HD
ATOM      6  H   UNL     1       4.834  44.647  53.481  1.00  0.00     0.166 HD
ENDROOT
BRANCH   3   7
ATOM      7  C   UNL     1       0.840  44.260  54.283  1.00  0.00     0.043 A 
ATOM      8  C   UNL     1      -0.002  43.331  53.652  1.00  0.00     0.026 A 
ATOM      9  C   UNL     1       0.321  45.076  55.306  1.00  0.00     0.040 A 
ATOM     10  C   UNL     1      -1.349  43.241  54.010  1.00  0.00     0.003 A 
ATOM     11  C   UNL     1      -1.036  44.992  55.670  1.00  0.00     0.042 A 
ATOM     12  C   UNL     1      -1.865  44.065  55.014  1.00  0.00     0.014 A 
BRANCH  11  13
ATOM     13  C   UNL     1      -1.581  45.837  56.760  1.00  0.00     0.256 C 
ATOM     14  O   UNL     1      -1.847  45.312  57.875  1.00  0.00    -0.269 OA
ATOM     15  N   UNL     1      -1.838  47.236  56.546  1.00  0.00    -0.307 N 
ATOM     16  H   UNL     1      -1.959  47.571  55.562  1.00  0.00     0.171 HD
BRANCH  15  17
ATOM     17  C   UNL     1      -1.980  48.192  57.610  1.00  0.00     0.132 A 
ATOM     18  C   UNL     1      -2.970  49.183  57.532  1.00  0.00     0.049 A 
ATOM     19  N   UNL     1      -1.137  48.171  58.683  1.00  0.00    -0.238 NA
ATOM     20  C   UNL     1      -3.084  50.123  58.559  1.00  0.00     0.026 A 
ATOM     21  C   UNL     1      -1.233  49.074  59.696  1.00  0.00     0.134 A 
ATOM     22  C   UNL     1      -2.212  50.070  59.651  1.00  0.00     0.059 A 
ATOM     23  Cl  UNL     1      -2.339  51.247  60.947  1.00  0.00    -0.083 Cl
ENDBRANCH  15  17
ENDBRANCH  11  13
ENDBRANCH   3   7
BRANCH   4  24
ATOM     24  C   UNL     1       5.006  46.645  52.632  1.00  0.00     0.139 C 
BRANCH  24  25
ATOM     25  C   UNL     1       5.320  47.700  53.717  1.00  0.00     0.185 C 
BRANCH  25  26
ATOM     26  O   UNL     1       4.305  48.665  53.813  1.00  0.00    -0.394 OA
ATOM     27  H   UNL     1       4.748  49.533  54.000  1.00  0.00     0.210 HD
ENDBRANCH  25  26
ENDBRANCH  24  25
BRANCH  24  28
ATOM     28  C   UNL     1       6.216  46.167  51.844  1.00  0.00    -0.022 A 
ATOM     29  C   UNL     1       6.008  45.270  50.777  1.00  0.00     0.009 A 
ATOM     30  C   UNL     1       7.542  46.506  52.194  1.00  0.00     0.029 A 
ATOM     31  C   UNL     1       7.090  44.760  50.054  1.00  0.00     0.041 A 
ATOM     32  C   UNL     1       8.624  46.000  51.463  1.00  0.00     0.077 A 
ATOM     33  C   UNL     1       8.395  45.128  50.388  1.00  0.00     0.141 A 
ATOM     34  Cl  UNL     1      10.263  46.456  51.904  1.00  0.00    -0.081 Cl
ATOM     35  F   UNL     1       9.435  44.630  49.674  1.00  0.00    -0.205 F 
ENDBRANCH  24  28
ENDBRANCH   4  24
TORSDOF 7
ENDMDL
MODEL 3
REMARK VINA RESULT:    -7.869      2.590      3.535
REMARK INTER + INTRA:         -11.679
REMARK INTER:                 -11.196
REMARK INTRA:                  -0.483
REMARK UNBOUND:                -0.819
REMARK SMILES O=C(Nc1cccc(C(=O)Nc2ccc(Cl)cn2)c1)N[C@@H](CO)c1ccc(F)c(Cl)c1
REMARK SMILES IDX 1 1 2 2 3 3 20 4 4 7 5 8 19 9 6 10 8 11 7 12 9 13 10 14
REMARK SMILES IDX 11 15 12 17 13 18 18 19 14 20 17 21 15 22 16 23 21 24 22 25
REMARK SMILES IDX 23 26 24 28 25 29 31 30 26 31 29 32 27 33 30 34 28 35
REMARK H PARENT 3 5 20 6 11 16 23 27
ROOT
ATOM      1  O   UNL     1       1.782  43.101  53.285  1.00  0.00    -0.248 OA
ATOM      2  C   UNL     1       1.651  43.365  52.057  1.00  0.00     0.319 C 
ATOM      3  N   UNL     1       0.405  43.873  51.552  1.00  0.00    -0.308 N 
ATOM      4  N   UNL     1       2.763  43.202  51.165  1.00  0.00    -0.329 N 
ATOM      5  H   UNL     1       0.413  44.335  50.615  1.00  0.00     0.171 HD
ATOM      6  H   UNL     1       2.636  43.459  50.162  1.00  0.00     0.166 HD
ENDROOT
BRANCH   3   7
ATOM      7  C   UNL     1      -0.813  43.915  52.317  1.00  0.00     0.043 A 
ATOM      8  C   UNL     1      -1.967  43.301  51.807  1.00  0.00     0.026 A 
ATOM      9  C   UNL     1      -0.854  44.507  53.594  1.00  0.00     0.040 A 
ATOM     10  C   UNL     1      -3.155  43.307  52.542  1.00  0.00     0.003 A 
ATOM     11  C   UNL     1      -2.049  44.518  54.340  1.00  0.00     0.042 A 
ATOM     12  C   UNL     1      -3.197  43.910  53.802  1.00  0.00     0.014 A 
BRANCH  11  13
ATOM     13  C   UNL     1      -2.091  45.124  55.692  1.00  0.00     0.256 C 
ATOM     14  O   UNL     1      -2.179  44.375  56.702  1.00  0.00    -0.269 OA
ATOM     15  N   UNL     1      -2.064  46.553  55.858  1.00  0.00    -0.307 N 
ATOM     16  H   UNL     1      -2.350  47.149  55.047  1.00  0.00     0.171 HD
BRANCH  15  17
ATOM     17  C   UNL     1      -1.709  47.206  57.088  1.00  0.00     0.132 A 
ATOM     18  C   UNL     1      -2.567  48.167  57.643  1.00  0.00     0.049 A 
ATOM     19  N   UNL     1      -0.524  46.930  57.707  1.00  0.00    -0.238 NA
ATOM     20  C   UNL     1      -2.202  48.814  58.826  1.00  0.00     0.026 A 
ATOM     21  C   UNL     1      -0.151  47.546  58.861  1.00  0.00     0.134 A 
ATOM     22  C   UNL     1      -0.986  48.503  59.442  1.00  0.00     0.059 A 
ATOM     23  Cl  UNL     1      -0.511  49.311  60.926  1.00  0.00    -0.083 Cl
ENDBRANCH  15  17
ENDBRANCH  11  13
ENDBRANCH   3   7
BRANCH   4  24
ATOM     24  C   UNL     1       4.071  42.718  51.623  1.00  0.00     0.139 C 
BRANCH  24  25
ATOM     25  C   UNL     1       4.549  41.523  50.767  1.00  0.00     0.185 C 
BRANCH  25  26
ATOM     26  O   UNL     1       3.489  40.665  50.435  1.00  0.00    -0.394 OA
ATOM     27  H   UNL     1       3.878  39.909  49.922  1.00  0.00     0.210 HD
ENDBRANCH  25  26
ENDBRANCH  24  25
BRANCH  24  28
ATOM     28  C   UNL     1       5.055  43.875  51.701  1.00  0.00    -0.022 A 
ATOM     29  C   UNL     1       5.826  44.175  50.560  1.00  0.00     0.009 A 
ATOM     30  C   UNL     1       5.296  44.598  52.890  1.00  0.00     0.029 A 
ATOM     31  C   UNL     1       6.782  45.196  50.595  1.00  0.00     0.041 A 
ATOM     32  C   UNL     1       6.248  45.625  52.919  1.00  0.00     0.077 A 
ATOM     33  C   UNL     1       6.989  45.925  51.766  1.00  0.00     0.141 A 
ATOM     34  Cl  UNL     1       6.514  46.526  54.406  1.00  0.00    -0.081 Cl
ATOM     35  F   UNL     1       7.914  46.917  51.783  1.00  0.00    -0.205 F 
ENDBRANCH  24  28
ENDBRANCH   4  24
TORSDOF 7
ENDMDL
MODEL 4
REMARK VINA RESULT:    -7.790      6.665     11.665
REMARK INTER + INTRA:         -11.570
REMARK INTER:                 -10.834
REMARK INTRA:                  -0.736
REMARK UNBOUND:                -0.819
REMARK SMILES O=C(Nc1cccc(C(=O)Nc2ccc(Cl)cn2)c1)N[C@@H](CO)c1ccc(F)c(Cl)c1
REMARK SMILES IDX 1 1 2 2 3 3 20 4 4 7 5 8 19 9 6 10 8 11 7 12 9 13 10 14
REMARK SMILES IDX 11 15 12 17 13 18 18 19 14 20 17 21 15 22 16 23 21 24 22 25
REMARK SMILES IDX 23 26 24 28 25 29 31 30 26 31 29 32 27 33 30 34 28 35
REMARK H PARENT 3 5 20 6 11 16 23 27
ROOT
ATOM      1  O   UNL     1       1.881  43.479  51.174  1.00  0.00    -0.248 OA
ATOM      2  C   UNL     1       2.370  42.878  52.171  1.00  0.00     0.319 C 
ATOM      3  N   UNL     1       3.634  42.202  52.063  1.00  0.00    -0.308 N 
ATOM      4  N   UNL     1       1.686  42.907  53.431  1.00  0.00    -0.329 N 
ATOM      5  H   UNL     1       4.133  41.962  52.950  1.00  0.00     0.171 HD
ATOM      6  H   UNL     1       2.130  42.429  54.247  1.00  0.00     0.166 HD
ENDROOT
BRANCH   3   7
ATOM      7  C   UNL     1       4.316  41.969  50.818  1.00  0.00     0.043 A 
ATOM      8  C   UNL     1       5.616  42.466  50.643  1.00  0.00     0.026 A 
ATOM      9  C   UNL     1       3.729  41.200  49.796  1.00  0.00     0.040 A 
ATOM     10  C   UNL     1       6.309  42.231  49.453  1.00  0.00     0.003 A 
ATOM     11  C   UNL     1       4.419  40.962  48.592  1.00  0.00     0.042 A 
ATOM     12  C   UNL     1       5.716  41.482  48.432  1.00  0.00     0.014 A 
BRANCH  11  13
ATOM     13  C   UNL     1       3.811  40.138  47.520  1.00  0.00     0.256 C 
ATOM     14  O   UNL     1       2.951  39.267  47.823  1.00  0.00    -0.269 OA
ATOM     15  N   UNL     1       4.215  40.302  46.148  1.00  0.00    -0.307 N 
ATOM     16  H   UNL     1       5.145  40.742  45.957  1.00  0.00     0.171 HD
BRANCH  15  17
ATOM     17  C   UNL     1       3.433  39.855  45.029  1.00  0.00     0.132 A 
ATOM     18  C   UNL     1       2.316  40.596  44.616  1.00  0.00     0.049 A 
ATOM     19  N   UNL     1       3.741  38.692  44.382  1.00  0.00    -0.238 NA
ATOM     20  C   UNL     1       1.547  40.141  43.543  1.00  0.00     0.026 A 
ATOM     21  C   UNL     1       3.008  38.233  43.333  1.00  0.00     0.134 A 
ATOM     22  C   UNL     1       1.893  38.951  42.894  1.00  0.00     0.059 A 
ATOM     23  Cl  UNL     1       0.934  38.363  41.547  1.00  0.00    -0.083 Cl
ENDBRANCH  15  17
ENDBRANCH  11  13
ENDBRANCH   3   7
BRANCH   4  24
ATOM     24  C   UNL     1       0.409  43.606  53.616  1.00  0.00     0.139 C 
BRANCH  24  25
ATOM     25  C   UNL     1      -0.775  42.614  53.585  1.00  0.00     0.185 C 
BRANCH  25  26
ATOM     26  O   UNL     1      -0.338  41.288  53.435  1.00  0.00    -0.394 OA
ATOM     27  H   UNL     1      -1.109  40.766  53.092  1.00  0.00     0.210 HD
ENDBRANCH  25  26
ENDBRANCH  24  25
BRANCH  24  28
ATOM     28  C   UNL     1       0.470  44.481  54.860  1.00  0.00    -0.022 A 
ATOM     29  C   UNL     1       1.736  44.815  55.380  1.00  0.00     0.009 A 
ATOM     30  C   UNL     1      -0.682  44.891  55.566  1.00  0.00     0.029 A 
ATOM     31  C   UNL     1       1.848  45.573  56.550  1.00  0.00     0.041 A 
ATOM     32  C   UNL     1      -0.568  45.657  56.733  1.00  0.00     0.077 A 
ATOM     33  C   UNL     1       0.701  46.001  57.222  1.00  0.00     0.141 A 
ATOM     34  Cl  UNL     1      -2.017  46.174  57.582  1.00  0.00    -0.081 Cl
ATOM     35  F   UNL     1       0.825  46.741  58.352  1.00  0.00    -0.205 F 
ENDBRANCH  24  28
ENDBRANCH   4  24
TORSDOF 7
ENDMDL
MODEL 5
REMARK VINA RESULT:    -7.293      5.364      9.887
REMARK INTER + INTRA:         -10.883
REMARK INTER:                  -9.900
REMARK INTRA:                  -0.983
REMARK UNBOUND:                -0.819
REMARK SMILES O=C(Nc1cccc(C(=O)Nc2ccc(Cl)cn2)c1)N[C@@H](CO)c1ccc(F)c(Cl)c1
REMARK SMILES IDX 1 1 2 2 3 3 20 4 4 7 5 8 19 9 6 10 8 11 7 12 9 13 10 14
REMARK SMILES IDX 11 15 12 17 13 18 18 19 14 20 17 21 15 22 16 23 21 24 22 25
REMARK SMILES IDX 23 26 24 28 25 29 31 30 26 31 29 32 27 33 30 34 28 35
REMARK H PARENT 3 5 20 6 11 16 23 27
ROOT
ATOM      1  O   UNL     1      -0.254  43.079  52.148  1.00  0.00    -0.248 OA
ATOM      2  C   UNL     1      -0.841  44.178  51.944  1.00  0.00     0.319 C 
ATOM      3  N   UNL     1      -0.480  45.346  52.700  1.00  0.00    -0.308 N 
ATOM      4  N   UNL     1      -1.843  44.277  50.923  1.00  0.00    -0.329 N 
ATOM      5  H   UNL     1      -0.775  46.276  52.327  1.00  0.00     0.171 HD
ATOM      6  H   UNL     1      -2.289  45.206  50.754  1.00  0.00     0.166 HD
ENDROOT
BRANCH   3   7
ATOM      7  C   UNL     1       0.382  45.321  53.852  1.00  0.00     0.043 A 
ATOM      8  C   UNL     1      -0.162  45.030  55.112  1.00  0.00     0.026 A 
ATOM      9  C   UNL     1       1.770  45.522  53.731  1.00  0.00     0.040 A 
ATOM     10  C   UNL     1       0.658  44.975  56.242  1.00  0.00     0.003 A 
ATOM     11  C   UNL     1       2.603  45.471  54.865  1.00  0.00     0.042 A 
ATOM     12  C   UNL     1       2.034  45.193  56.120  1.00  0.00     0.014 A 
BRANCH  11  13
ATOM     13  C   UNL     1       4.067  45.664  54.738  1.00  0.00     0.256 C 
ATOM     14  O   UNL     1       4.847  44.950  55.425  1.00  0.00    -0.269 OA
ATOM     15  N   UNL     1       4.602  46.676  53.865  1.00  0.00    -0.307 N 
ATOM     16  H   UNL     1       3.979  47.471  53.593  1.00  0.00     0.171 HD
BRANCH  15  17
ATOM     17  C   UNL     1       5.956  46.677  53.383  1.00  0.00     0.132 A 
ATOM     18  C   UNL     1       6.255  46.112  52.135  1.00  0.00     0.049 A 
ATOM     19  N   UNL     1       6.967  47.190  54.144  1.00  0.00    -0.238 NA
ATOM     20  C   UNL     1       7.577  46.095  51.686  1.00  0.00     0.026 A 
ATOM     21  C   UNL     1       8.260  47.188  53.725  1.00  0.00     0.134 A 
ATOM     22  C   UNL     1       8.590  46.637  52.484  1.00  0.00     0.059 A 
ATOM     23  Cl  UNL     1      10.256  46.619  51.936  1.00  0.00    -0.083 Cl
ENDBRANCH  15  17
ENDBRANCH  11  13
ENDBRANCH   3   7
BRANCH   4  24
ATOM     24  C   UNL     1      -2.236  43.131  50.095  1.00  0.00     0.139 C 
BRANCH  24  25
ATOM     25  C   UNL     1      -3.323  42.287  50.797  1.00  0.00     0.185 C 
BRANCH  25  26
ATOM     26  O   UNL     1      -2.763  41.286  51.606  1.00  0.00    -0.394 OA
ATOM     27  H   UNL     1      -1.790  41.265  51.407  1.00  0.00     0.210 HD
ENDBRANCH  25  26
ENDBRANCH  24  25
BRANCH  24  28
ATOM     28  C   UNL     1      -2.604  43.602  48.696  1.00  0.00    -0.022 A 
ATOM     29  C   UNL     1      -2.497  42.685  47.631  1.00  0.00     0.009 A 
ATOM     30  C   UNL     1      -2.956  44.939  48.405  1.00  0.00     0.029 A 
ATOM     31  C   UNL     1      -2.774  43.081  46.319  1.00  0.00     0.041 A 
ATOM     32  C   UNL     1      -3.242  45.331  47.091  1.00  0.00     0.077 A 
ATOM     33  C   UNL     1      -3.153  44.397  46.048  1.00  0.00     0.141 A 
ATOM     34  Cl  UNL     1      -3.700  46.995  46.757  1.00  0.00    -0.081 Cl
ATOM     35  F   UNL     1      -3.425  44.766  44.771  1.00  0.00    -0.205 F 
ENDBRANCH  24  28
ENDBRANCH   4  24
TORSDOF 7
ENDMDL
