MODEL 1
REMARK VINA RESULT:    -8.464      0.000      0.000
REMARK INTER + INTRA:         -14.207
REMARK INTER:                 -12.422
REMARK INTRA:                  -1.785
REMARK UNBOUND:                -1.785
REMARK SMILES COc1ccc([C@H](NC(=O)c2ccccc2SCC(=O)N2CCCC2)C(F)F)cc1
REMARK SMILES IDX 8 1 9 2 10 3 7 5 6 6 3 7 4 8 30 9 5 10 29 11 2 12 1 13 26 14
REMARK SMILES IDX 27 15 28 16 11 17 12 18 16 19 13 20 15 21 14 22 17 23 18 24
REMARK SMILES IDX 19 25 20 26 21 27 22 28 25 29 23 30 24 31
REMARK H PARENT 8 4
ROOT
ATOM      1  N   UNL     1       4.747  45.911  52.882  1.00  0.00    -0.339 N 
ATOM      2  C   UNL     1       3.474  46.521  53.150  1.00  0.00     0.253 C 
ATOM      3  O   UNL     1       3.245  47.696  52.756  1.00  0.00    -0.269 OA
ATOM      4  H   UNL     1       5.011  45.057  53.423  1.00  0.00     0.164 HD
ENDROOT
BRANCH   1   5
ATOM      5  C   UNL     1       5.738  46.523  51.991  1.00  0.00     0.179 C 
BRANCH   5   6
ATOM      6  C   UNL     1       7.062  46.711  52.701  1.00  0.00    -0.020 A 
ATOM      7  C   UNL     1       9.494  47.160  54.060  1.00  0.00     0.118 A 
ATOM      8  C   UNL     1       8.307  46.970  54.775  1.00  0.00     0.047 A 
ATOM      9  C   UNL     1       9.461  47.125  52.653  1.00  0.00     0.047 A 
ATOM     10  C   UNL     1       7.101  46.753  54.104  1.00  0.00     0.010 A 
ATOM     11  C   UNL     1       8.254  46.910  51.981  1.00  0.00     0.010 A 
BRANCH   7  12
ATOM     12  O   UNL     1      10.676  47.386  54.780  1.00  0.00    -0.497 OA
ATOM     13  C   UNL     1      10.723  47.721  56.163  1.00  0.00     0.278 C 
ENDBRANCH   7  12
ENDBRANCH   5   6
BRANCH   5  14
ATOM     14  C   UNL     1       5.912  45.683  50.718  1.00  0.00     0.369 C 
ATOM     15  F   UNL     1       4.672  45.345  50.205  1.00  0.00    -0.208 F 
ATOM     16  F   UNL     1       6.621  44.524  50.984  1.00  0.00    -0.208 F 
ENDBRANCH   5  14
ENDBRANCH   1   5
BRANCH   2  17
ATOM     17  C   UNL     1       2.442  45.805  53.935  1.00  0.00     0.053 A 
ATOM     18  C   UNL     1       2.312  46.098  55.304  1.00  0.00     0.015 A 
ATOM     19  C   UNL     1       1.579  44.844  53.353  1.00  0.00     0.020 A 
ATOM     20  C   UNL     1       1.370  45.429  56.089  1.00  0.00     0.001 A 
ATOM     21  C   UNL     1       0.645  44.173  54.155  1.00  0.00     0.016 A 
ATOM     22  C   UNL     1       0.542  44.464  55.516  1.00  0.00     0.001 A 
BRANCH  19  23
ATOM     23  S   UNL     1       1.594  44.482  51.589  1.00  0.00    -0.115 SA
BRANCH  23  24
ATOM     24  C   UNL     1       1.995  42.717  51.807  1.00  0.00     0.175 C 
BRANCH  24  25
ATOM     25  C   UNL     1       3.479  42.544  51.697  1.00  0.00     0.232 C 
ATOM     26  O   UNL     1       4.219  43.068  52.574  1.00  0.00    -0.274 OA
ATOM     27  N   UNL     1       4.073  41.877  50.569  1.00  0.00    -0.342 N 
ATOM     28  C   UNL     1       5.479  42.004  50.229  1.00  0.00     0.119 C 
ATOM     29  C   UNL     1       3.333  41.075  49.611  1.00  0.00     0.119 C 
ATOM     30  C   UNL     1       5.620  41.400  48.839  1.00  0.00     0.023 C 
ATOM     31  C   UNL     1       4.363  40.564  48.612  1.00  0.00     0.023 C 
ENDBRANCH  24  25
ENDBRANCH  23  24
ENDBRANCH  19  23
ENDBRANCH   2  17
TORSDOF 8
ENDMDL
MODEL 2
REMARK VINA RESULT:    -8.229      2.675      7.658
REMARK INTER + INTRA:         -13.863
REMARK INTER:                 -12.514
REMARK INTRA:                  -1.348
REMARK UNBOUND:                -1.785
REMARK SMILES COc1ccc([C@H](NC(=O)c2ccccc2SCC(=O)N2CCCC2)C(F)F)cc1
REMARK SMILES IDX 8 1 9 2 10 3 7 5 6 6 3 7 4 8 30 9 5 10 29 11 2 12 1 13 26 14
REMARK SMILES IDX 27 15 28 16 11 17 12 18 16 19 13 20 15 21 14 22 17 23 18 24
REMARK SMILES IDX 19 25 20 26 21 27 22 28 25 29 23 30 24 31
REMARK H PARENT 8 4
ROOT
ATOM      1  N   UNL     1       3.223  44.419  53.410  1.00  0.00    -0.339 N 
ATOM      2  C   UNL     1       3.221  44.374  51.975  1.00  0.00     0.253 C 
ATOM      3  O   UNL     1       2.418  45.097  51.325  1.00  0.00    -0.269 OA
ATOM      4  H   UNL     1       3.700  43.647  53.930  1.00  0.00     0.164 HD
ENDROOT
BRANCH   1   5
ATOM      5  C   UNL     1       2.462  45.420  54.165  1.00  0.00     0.179 C 
BRANCH   5   6
ATOM      6  C   UNL     1       1.155  44.842  54.667  1.00  0.00    -0.020 A 
ATOM      7  C   UNL     1      -1.332  43.818  55.521  1.00  0.00     0.118 A 
ATOM      8  C   UNL     1      -0.778  43.411  54.303  1.00  0.00     0.047 A 
ATOM      9  C   UNL     1      -0.634  44.746  56.316  1.00  0.00     0.047 A 
ATOM     10  C   UNL     1       0.451  43.920  53.876  1.00  0.00     0.010 A 
ATOM     11  C   UNL     1       0.594  45.258  55.889  1.00  0.00     0.010 A 
BRANCH   7  12
ATOM     12  O   UNL     1      -2.573  43.286  55.898  1.00  0.00    -0.497 OA
ATOM     13  C   UNL     1      -3.027  43.177  57.243  1.00  0.00     0.278 C 
ENDBRANCH   7  12
ENDBRANCH   5   6
BRANCH   5  14
ATOM     14  C   UNL     1       3.300  45.973  55.326  1.00  0.00     0.369 C 
ATOM     15  F   UNL     1       3.890  47.167  54.952  1.00  0.00    -0.208 F 
ATOM     16  F   UNL     1       4.289  45.076  55.694  1.00  0.00    -0.208 F 
ENDBRANCH   5  14
ENDBRANCH   1   5
BRANCH   2  17
ATOM     17  C   UNL     1       4.115  43.446  51.245  1.00  0.00     0.053 A 
ATOM     18  C   UNL     1       3.823  42.071  51.268  1.00  0.00     0.015 A 
ATOM     19  C   UNL     1       5.246  43.897  50.520  1.00  0.00     0.020 A 
ATOM     20  C   UNL     1       4.653  41.157  50.616  1.00  0.00     0.001 A 
ATOM     21  C   UNL     1       6.076  42.967  49.879  1.00  0.00     0.016 A 
ATOM     22  C   UNL     1       5.781  41.603  49.928  1.00  0.00     0.001 A 
BRANCH  19  23
ATOM     23  S   UNL     1       5.637  45.646  50.340  1.00  0.00    -0.115 SA
BRANCH  23  24
ATOM     24  C   UNL     1       7.254  45.518  51.173  1.00  0.00     0.175 C 
BRANCH  24  25
ATOM     25  C   UNL     1       7.093  45.937  52.603  1.00  0.00     0.232 C 
ATOM     26  O   UNL     1       5.946  45.887  53.126  1.00  0.00    -0.274 OA
ATOM     27  N   UNL     1       8.194  46.479  53.353  1.00  0.00    -0.342 N 
ATOM     28  C   UNL     1       8.018  47.229  54.583  1.00  0.00     0.119 C 
ATOM     29  C   UNL     1       9.583  46.407  52.933  1.00  0.00     0.119 C 
ATOM     30  C   UNL     1       9.372  47.857  54.879  1.00  0.00     0.023 C 
ATOM     31  C   UNL     1      10.386  47.093  54.030  1.00  0.00     0.023 C 
ENDBRANCH  24  25
ENDBRANCH  23  24
ENDBRANCH  19  23
ENDBRANCH   2  17
TORSDOF 8
ENDMDL
MODEL 3
REMARK VINA RESULT:    -8.205      2.605      6.496
REMARK INTER + INTRA:         -13.827
REMARK INTER:                 -12.271
REMARK INTRA:                  -1.557
REMARK UNBOUND:                -1.785
REMARK SMILES COc1ccc([C@H](NC(=O)c2ccccc2SCC(=O)N2CCCC2)C(F)F)cc1
REMARK SMILES IDX 8 1 9 2 10 3 7 5 6 6 3 7 4 8 30 9 5 10 29 11 2 12 1 13 26 14
REMARK SMILES IDX 27 15 28 16 11 17 12 18 16 19 13 20 15 21 14 22 17 23 18 24
REMARK SMILES IDX 19 25 20 26 21 27 22 28 25 29 23 30 24 31
REMARK H PARENT 8 4
ROOT
ATOM      1  N   UNL     1       5.220  46.050  53.652  1.00  0.00    -0.339 N 
ATOM      2  C   UNL     1       6.097  47.106  53.231  1.00  0.00     0.253 C 
ATOM      3  O   UNL     1       5.643  48.271  53.064  1.00  0.00    -0.269 OA
ATOM      4  H   UNL     1       5.544  45.062  53.541  1.00  0.00     0.164 HD
ENDROOT
BRANCH   1   5
ATOM      5  C   UNL     1       3.843  46.301  54.090  1.00  0.00     0.179 C 
BRANCH   5   6
ATOM      6  C   UNL     1       2.861  45.453  53.306  1.00  0.00    -0.020 A 
ATOM      7  C   UNL     1       0.959  43.893  51.926  1.00  0.00     0.118 A 
ATOM      8  C   UNL     1       0.780  45.274  52.059  1.00  0.00     0.047 A 
ATOM      9  C   UNL     1       2.099  43.290  52.489  1.00  0.00     0.047 A 
ATOM     10  C   UNL     1       1.718  46.047  52.747  1.00  0.00     0.010 A 
ATOM     11  C   UNL     1       3.037  44.063  53.179  1.00  0.00     0.010 A 
BRANCH   7  12
ATOM     12  O   UNL     1      -0.018  43.160  51.236  1.00  0.00    -0.497 OA
ATOM     13  C   UNL     1      -1.273  42.775  51.786  1.00  0.00     0.278 C 
ENDBRANCH   7  12
ENDBRANCH   5   6
BRANCH   5  14
ATOM     14  C   UNL     1       3.701  46.052  55.597  1.00  0.00     0.369 C 
ATOM     15  F   UNL     1       4.563  45.043  55.990  1.00  0.00    -0.208 F 
ATOM     16  F   UNL     1       2.404  45.688  55.919  1.00  0.00    -0.208 F 
ENDBRANCH   5  14
ENDBRANCH   1   5
BRANCH   2  17
ATOM     17  C   UNL     1       7.523  46.834  52.938  1.00  0.00     0.053 A 
ATOM     18  C   UNL     1       8.477  47.088  53.940  1.00  0.00     0.015 A 
ATOM     19  C   UNL     1       7.956  46.321  51.691  1.00  0.00     0.020 A 
ATOM     20  C   UNL     1       9.835  46.871  53.700  1.00  0.00     0.001 A 
ATOM     21  C   UNL     1       9.323  46.118  51.460  1.00  0.00     0.016 A 
ATOM     22  C   UNL     1      10.258  46.393  52.459  1.00  0.00     0.001 A 
BRANCH  19  23
ATOM     23  S   UNL     1       6.800  45.861  50.388  1.00  0.00    -0.115 SA
BRANCH  23  24
ATOM     24  C   UNL     1       6.527  44.176  51.027  1.00  0.00     0.175 C 
BRANCH  24  25
ATOM     25  C   UNL     1       6.696  43.202  49.900  1.00  0.00     0.232 C 
ATOM     26  O   UNL     1       7.700  43.313  49.145  1.00  0.00    -0.274 OA
ATOM     27  N   UNL     1       5.694  42.211  49.611  1.00  0.00    -0.342 N 
ATOM     28  C   UNL     1       5.623  41.507  48.344  1.00  0.00     0.119 C 
ATOM     29  C   UNL     1       4.607  41.861  50.509  1.00  0.00     0.119 C 
ATOM     30  C   UNL     1       4.280  40.792  48.345  1.00  0.00     0.023 C 
ATOM     31  C   UNL     1       3.814  40.771  49.800  1.00  0.00     0.023 C 
ENDBRANCH  24  25
ENDBRANCH  23  24
ENDBRANCH  19  23
ENDBRANCH   2  17
TORSDOF 8
ENDMDL
MODEL 4
REMARK VINA RESULT:    -7.897      2.452      7.276
REMARK INTER + INTRA:         -13.375
REMARK INTER:                 -12.648
REMARK INTRA:                  -0.726
REMARK UNBOUND:                -1.785
REMARK SMILES COc1ccc([C@H](NC(=O)c2ccccc2SCC(=O)N2CCCC2)C(F)F)cc1
REMARK SMILES IDX 8 1 9 2 10 3 7 5 6 6 3 7 4 8 30 9 5 10 29 11 2 12 1 13 26 14
REMARK SMILES IDX 27 15 28 16 11 17 12 18 16 19 13 20 15 21 14 22 17 23 18 24
REMARK SMILES IDX 19 25 20 26 21 27 22 28 25 29 23 30 24 31
REMARK H PARENT 8 4
ROOT
ATOM      1  N   UNL     1       2.282  43.812  51.964  1.00  0.00    -0.339 N 
ATOM      2  C   UNL     1       3.482  43.024  51.977  1.00  0.00     0.253 C 
ATOM      3  O   UNL     1       3.535  41.970  52.667  1.00  0.00    -0.269 OA
ATOM      4  H   UNL     1       2.335  44.792  51.603  1.00  0.00     0.164 HD
ENDROOT
BRANCH   1   5
ATOM      5  C   UNL     1       1.030  43.345  52.568  1.00  0.00     0.179 C 
BRANCH   5   6
ATOM      6  C   UNL     1       0.807  43.988  53.921  1.00  0.00    -0.020 A 
ATOM      7  C   UNL     1       0.328  45.261  56.393  1.00  0.00     0.118 A 
ATOM      8  C   UNL     1      -0.702  44.580  55.735  1.00  0.00     0.047 A 
ATOM      9  C   UNL     1       1.606  45.304  55.807  1.00  0.00     0.047 A 
ATOM     10  C   UNL     1      -0.468  43.954  54.508  1.00  0.00     0.010 A 
ATOM     11  C   UNL     1       1.841  44.679  54.579  1.00  0.00     0.010 A 
BRANCH   7  12
ATOM     12  O   UNL     1       0.038  45.883  57.616  1.00  0.00    -0.497 OA
ATOM     13  C   UNL     1       0.937  46.733  58.319  1.00  0.00     0.278 C 
ENDBRANCH   7  12
ENDBRANCH   5   6
BRANCH   5  14
ATOM     14  C   UNL     1      -0.156  43.613  51.631  1.00  0.00     0.369 C 
ATOM     15  F   UNL     1       0.111  43.094  50.376  1.00  0.00    -0.208 F 
ATOM     16  F   UNL     1      -0.398  44.972  51.516  1.00  0.00    -0.208 F 
ENDBRANCH   5  14
ENDBRANCH   1   5
BRANCH   2  17
ATOM     17  C   UNL     1       4.684  43.462  51.229  1.00  0.00     0.053 A 
ATOM     18  C   UNL     1       5.328  42.538  50.389  1.00  0.00     0.015 A 
ATOM     19  C   UNL     1       5.198  44.778  51.326  1.00  0.00     0.020 A 
ATOM     20  C   UNL     1       6.479  42.899  49.684  1.00  0.00     0.001 A 
ATOM     21  C   UNL     1       6.359  45.124  50.622  1.00  0.00     0.016 A 
ATOM     22  C   UNL     1       6.997  44.188  49.806  1.00  0.00     0.001 A 
BRANCH  19  23
ATOM     23  S   UNL     1       4.378  46.062  52.288  1.00  0.00    -0.115 SA
BRANCH  23  24
ATOM     24  C   UNL     1       5.789  47.215  52.222  1.00  0.00     0.175 C 
BRANCH  24  25
ATOM     25  C   UNL     1       6.519  47.158  53.529  1.00  0.00     0.232 C 
ATOM     26  O   UNL     1       5.867  47.319  54.598  1.00  0.00    -0.274 OA
ATOM     27  N   UNL     1       7.949  47.019  53.582  1.00  0.00    -0.342 N 
ATOM     28  C   UNL     1       8.728  47.326  54.768  1.00  0.00     0.119 C 
ATOM     29  C   UNL     1       8.776  46.636  52.451  1.00  0.00     0.119 C 
ATOM     30  C   UNL     1      10.181  47.332  54.315  1.00  0.00     0.023 C 
ATOM     31  C   UNL     1      10.207  46.606  52.971  1.00  0.00     0.023 C 
ENDBRANCH  24  25
ENDBRANCH  23  24
ENDBRANCH  19  23
ENDBRANCH   2  17
TORSDOF 8
ENDMDL
MODEL 5
REMARK VINA RESULT:    -7.816      3.233      6.877
REMARK INTER + INTRA:         -13.256
REMARK INTER:                 -12.072
REMARK INTRA:                  -1.184
REMARK UNBOUND:                -1.785
REMARK SMILES COc1ccc([C@H](NC(=O)c2ccccc2SCC(=O)N2CCCC2)C(F)F)cc1
REMARK SMILES IDX 8 1 9 2 10 3 7 5 6 6 3 7 4 8 30 9 5 10 29 11 2 12 1 13 26 14
REMARK SMILES IDX 27 15 28 16 11 17 12 18 16 19 13 20 15 21 14 22 17 23 18 24
REMARK SMILES IDX 19 25 20 26 21 27 22 28 25 29 23 30 24 31
REMARK H PARENT 8 4
ROOT
ATOM      1  N   UNL     1       4.583  44.768  52.866  1.00  0.00    -0.339 N 
ATOM      2  C   UNL     1       4.853  45.246  51.539  1.00  0.00     0.253 C 
ATOM      3  O   UNL     1       4.053  46.049  50.986  1.00  0.00    -0.269 OA
ATOM      4  H   UNL     1       5.103  43.927  53.205  1.00  0.00     0.164 HD
ENDROOT
BRANCH   1   5
ATOM      5  C   UNL     1       3.510  45.323  53.698  1.00  0.00     0.179 C 
BRANCH   5   6
ATOM      6  C   UNL     1       2.198  44.612  53.435  1.00  0.00    -0.020 A 
ATOM      7  C   UNL     1      -0.266  43.293  53.055  1.00  0.00     0.118 A 
ATOM      8  C   UNL     1      -0.234  44.631  53.460  1.00  0.00     0.047 A 
ATOM      9  C   UNL     1       0.945  42.611  52.840  1.00  0.00     0.047 A 
ATOM     10  C   UNL     1       0.985  45.285  53.654  1.00  0.00     0.010 A 
ATOM     11  C   UNL     1       2.166  43.264  53.035  1.00  0.00     0.010 A 
BRANCH   7  12
ATOM     12  O   UNL     1      -1.516  42.680  52.885  1.00  0.00    -0.497 OA
ATOM     13  C   UNL     1      -2.719  43.375  52.575  1.00  0.00     0.278 C 
ENDBRANCH   7  12
ENDBRANCH   5   6
BRANCH   5  14
ATOM     14  C   UNL     1       3.886  45.251  55.183  1.00  0.00     0.369 C 
ATOM     15  F   UNL     1       3.890  46.523  55.729  1.00  0.00    -0.208 F 
ATOM     16  F   UNL     1       5.139  44.685  55.350  1.00  0.00    -0.208 F 
ENDBRANCH   5  14
ENDBRANCH   1   5
BRANCH   2  17
ATOM     17  C   UNL     1       6.035  44.767  50.787  1.00  0.00     0.053 A 
ATOM     18  C   UNL     1       7.140  45.625  50.650  1.00  0.00     0.015 A 
ATOM     19  C   UNL     1       6.093  43.474  50.211  1.00  0.00     0.020 A 
ATOM     20  C   UNL     1       8.267  45.225  49.927  1.00  0.00     0.001 A 
ATOM     21  C   UNL     1       7.226  43.090  49.480  1.00  0.00     0.016 A 
ATOM     22  C   UNL     1       8.307  43.962  49.338  1.00  0.00     0.001 A 
BRANCH  19  23
ATOM     23  S   UNL     1       4.776  42.265  50.428  1.00  0.00    -0.115 SA
BRANCH  23  24
ATOM     24  C   UNL     1       5.392  41.146  49.127  1.00  0.00     0.175 C 
BRANCH  24  25
ATOM     25  C   UNL     1       4.251  40.785  48.224  1.00  0.00     0.232 C 
ATOM     26  O   UNL     1       3.208  40.287  48.731  1.00  0.00    -0.274 OA
ATOM     27  N   UNL     1       4.361  40.906  46.795  1.00  0.00    -0.342 N 
ATOM     28  C   UNL     1       3.458  40.239  45.875  1.00  0.00     0.119 C 
ATOM     29  C   UNL     1       5.417  41.636  46.116  1.00  0.00     0.119 C 
ATOM     30  C   UNL     1       4.091  40.386  44.499  1.00  0.00     0.023 C 
ATOM     31  C   UNL     1       5.124  41.504  44.627  1.00  0.00     0.023 C 
ENDBRANCH  24  25
ENDBRANCH  23  24
ENDBRANCH  19  23
ENDBRANCH   2  17
TORSDOF 8
ENDMDL
