ligand_52_conformer_3_docked
     RDKit          3D

 43 46  0  0  0  0  0  0  0  0999 V2000
   -3.1160   45.5670   54.9200 C   0  0  0  0  0  0  0  0  0  0  0  0
   -2.0550   44.8610   55.7810 C   0  0  0  0  0  0  0  0  0  0  0  0
   -1.1160   43.9580   54.9360 C   0  0  0  0  0  0  0  0  0  0  0  0
   -0.2980   44.6920   53.9670 N   0  0  0  0  0  0  0  0  0  0  0  0
    0.9460   45.1640   54.1570 C   0  0  0  0  0  0  0  0  0  0  0  0
    1.3300   45.7240   52.9560 C   0  0  0  0  0  0  0  0  0  0  0  0
    2.6090   46.3790   52.6350 C   0  0  0  0  0  0  0  0  0  0  0  0
    2.6750   47.6370   52.6590 O   0  0  0  0  0  0  0  0  0  0  0  0
    3.7730   45.6080   52.2990 N   0  0  0  0  0  0  0  0  0  0  0  0
    5.0480   46.2510   51.9990 C   0  0  2  0  0  0  0  0  0  0  0  0
    5.7540   45.6350   50.7920 C   0  0  0  0  0  0  0  0  0  0  0  0
    6.2550   45.3430   52.2040 C   0  0  1  0  0  0  0  0  0  0  0  0
    7.5600   46.0030   52.6130 C   0  0  0  0  0  0  0  0  0  0  0  0
    7.5740   46.7400   53.8100 C   0  0  0  0  0  0  0  0  0  0  0  0
    8.7410   47.3730   54.2450 C   0  0  0  0  0  0  0  0  0  0  0  0
    9.9110   47.2800   53.4900 C   0  0  0  0  0  0  0  0  0  0  0  0
    9.9170   46.5520   52.2980 C   0  0  0  0  0  0  0  0  0  0  0  0
   11.0550   46.4600   51.5680 F   0  0  0  0  0  0  0  0  0  0  0  0
    8.7510   45.9160   51.8590 C   0  0  0  0  0  0  0  0  0  0  0  0
    0.3230   45.5630   52.0740 N   0  0  0  0  0  0  0  0  0  0  0  0
   -0.6490   44.9280   52.7130 N   0  0  0  0  0  0  0  0  0  0  0  0
   -2.6250   44.2410   57.0460 C   0  0  0  0  0  0  0  0  0  0  0  0
   -1.9310   45.1410   57.8780 O   0  0  0  0  0  0  0  0  0  0  0  0
   -1.3670   45.7930   56.7640 C   0  0  0  0  0  0  0  0  0  0  0  0
   -3.8523   46.0569   55.5741 H   0  0  0  0  0  0  0  0  0  0  0  0
   -2.6297   46.3222   54.2851 H   0  0  0  0  0  0  0  0  0  0  0  0
   -3.6248   44.8268   54.2851 H   0  0  0  0  0  0  0  0  0  0  0  0
   -0.4430   43.4216   55.6211 H   0  0  0  0  0  0  0  0  0  0  0  0
   -1.7612   43.2792   54.3590 H   0  0  0  0  0  0  0  0  0  0  0  0
    1.5381   45.1139   55.0827 H   0  0  0  0  0  0  0  0  0  0  0  0
    3.7490   44.5680   52.3690 H   0  0  0  0  0  0  0  0  0  0  0  0
    4.7792   47.2691   52.3171 H   0  0  0  0  0  0  0  0  0  0  0  0
    5.2589   44.8443   50.2092 H   0  0  0  0  0  0  0  0  0  0  0  0
    6.2079   46.0291   49.8708 H   0  0  0  0  0  0  0  0  0  0  0  0
    6.4490   44.4339   52.7921 H   0  0  0  0  0  0  0  0  0  0  0  0
    6.6560   46.8192   54.4108 H   0  0  0  0  0  0  0  0  0  0  0  0
    8.7376   47.9457   55.1842 H   0  0  0  0  0  0  0  0  0  0  0  0
   10.8285   47.7800   53.8337 H   0  0  0  0  0  0  0  0  0  0  0  0
    8.7618   45.3439   50.9196 H   0  0  0  0  0  0  0  0  0  0  0  0
   -3.7189   44.3276   57.1224 H   0  0  0  0  0  0  0  0  0  0  0  0
   -2.5034   43.1603   57.2114 H   0  0  0  0  0  0  0  0  0  0  0  0
   -1.6801   46.8429   56.6655 H   0  0  0  0  0  0  0  0  0  0  0  0
   -0.2745   45.9100   56.7119 H   0  0  0  0  0  0  0  0  0  0  0  0
  1  2  1  0
  2  3  1  0
  3  4  1  0
  4  5  1  0
  5  6  2  0
  6  7  1  0
  7  8  2  0
  7  9  1  0
  9 10  1  0
 10 11  1  0
 11 12  1  0
 12 13  1  0
 13 14  2  0
 14 15  1  0
 15 16  2  0
 16 17  1  0
 17 18  1  0
 17 19  2  0
  6 20  1  0
 20 21  2  0
  2 22  1  0
 22 23  1  0
 23 24  1  0
 24  2  1  0
 21  4  1  0
 12 10  1  0
 19 13  1  0
  1 25  1  0
  1 26  1  0
  1 27  1  0
  3 28  1  0
  3 29  1  0
  5 30  1  0
  9 31  1  0
 10 32  1  6
 11 33  1  0
 11 34  1  0
 12 35  1  1
 14 36  1  0
 15 37  1  0
 16 38  1  0
 19 39  1  0
 22 40  1  0
 22 41  1  0
 24 42  1  0
 24 43  1  0
M  END
>  <meeko>  (1) 
{"is_sidechain": [false], "free_energy": -8.293, "intermolecular_energy": -10.717, "internal_energy": -0.369}

$$$$
ligand_52_conformer_3_docked
     RDKit          3D

 43 46  0  0  0  0  0  0  0  0999 V2000
   -3.2940   43.3040   52.2530 C   0  0  0  0  0  0  0  0  0  0  0  0
   -2.2270   44.1430   51.5290 C   0  0  0  0  0  0  0  0  0  0  0  0
   -1.1360   43.2620   50.8630 C   0  0  0  0  0  0  0  0  0  0  0  0
    0.0890   43.1310   51.6560 N   0  0  0  0  0  0  0  0  0  0  0  0
    1.2920   43.6610   51.3730 C   0  0  0  0  0  0  0  0  0  0  0  0
    2.1150   43.3260   52.4290 C   0  0  0  0  0  0  0  0  0  0  0  0
    3.5360   43.6680   52.6060 C   0  0  0  0  0  0  0  0  0  0  0  0
    4.3210   43.5470   51.6270 O   0  0  0  0  0  0  0  0  0  0  0  0
    4.0350   44.1330   53.8690 N   0  0  0  0  0  0  0  0  0  0  0  0
    5.4390   44.4920   54.0450 C   0  0  2  0  0  0  0  0  0  0  0  0
    5.6720   45.3990   55.2510 C   0  0  0  0  0  0  0  0  0  0  0  0
    5.7230   45.9750   53.8390 C   0  0  1  0  0  0  0  0  0  0  0  0
    7.0940   46.3520   53.3060 C   0  0  0  0  0  0  0  0  0  0  0  0
    7.2930   46.3000   51.9160 C   0  0  0  0  0  0  0  0  0  0  0  0
    8.5310   46.6340   51.3590 C   0  0  0  0  0  0  0  0  0  0  0  0
    9.5880   47.0240   52.1840 C   0  0  0  0  0  0  0  0  0  0  0  0
    9.4080   47.0820   53.5670 C   0  0  0  0  0  0  0  0  0  0  0  0
   10.4340   47.4640   54.3660 F   0  0  0  0  0  0  0  0  0  0  0  0
    8.1710   46.7500   54.1300 C   0  0  0  0  0  0  0  0  0  0  0  0
    1.3910   42.6230   53.3220 N   0  0  0  0  0  0  0  0  0  0  0  0
    0.1640   42.5250   52.8300 N   0  0  0  0  0  0  0  0  0  0  0  0
   -1.7300   45.3200   52.3520 C   0  0  0  0  0  0  0  0  0  0  0  0
   -2.3010   46.2600   51.4720 O   0  0  0  0  0  0  0  0  0  0  0  0
   -2.8190   45.2350   50.6550 C   0  0  0  0  0  0  0  0  0  0  0  0
   -3.1646   43.4057   53.3406 H   0  0  0  0  0  0  0  0  0  0  0  0
   -4.2953   43.6592   51.9680 H   0  0  0  0  0  0  0  0  0  0  0  0
   -3.1850   42.2472   51.9680 H   0  0  0  0  0  0  0  0  0  0  0  0
   -1.5533   42.2570   50.7022 H   0  0  0  0  0  0  0  0  0  0  0  0
   -0.8553   43.7590   49.9227 H   0  0  0  0  0  0  0  0  0  0  0  0
    1.5648   44.2435   50.4807 H   0  0  0  0  0  0  0  0  0  0  0  0
    3.3750   44.3250   54.6540 H   0  0  0  0  0  0  0  0  0  0  0  0
    5.8795   43.5575   53.6672 H   0  0  0  0  0  0  0  0  0  0  0  0
    4.8354   45.6524   55.9188 H   0  0  0  0  0  0  0  0  0  0  0  0
    6.3559   45.3883   56.1125 H   0  0  0  0  0  0  0  0  0  0  0  0
    5.2147   46.7953   53.3110 H   0  0  0  0  0  0  0  0  0  0  0  0
    6.4658   45.9932   51.2590 H   0  0  0  0  0  0  0  0  0  0  0  0
    8.6727   46.5895   50.2691 H   0  0  0  0  0  0  0  0  0  0  0  0
   10.5618   47.2853   51.7443 H   0  0  0  0  0  0  0  0  0  0  0  0
    8.0359   46.7990   55.2206 H   0  0  0  0  0  0  0  0  0  0  0  0
   -2.1532   45.3556   53.3667 H   0  0  0  0  0  0  0  0  0  0  0  0
   -0.6576   45.3918   52.5861 H   0  0  0  0  0  0  0  0  0  0  0  0
   -3.9182   45.2182   50.6163 H   0  0  0  0  0  0  0  0  0  0  0  0
   -2.5867   45.2417   49.5798 H   0  0  0  0  0  0  0  0  0  0  0  0
  1  2  1  0
  2  3  1  0
  3  4  1  0
  4  5  1  0
  5  6  2  0
  6  7  1  0
  7  8  2  0
  7  9  1  0
  9 10  1  0
 10 11  1  0
 11 12  1  0
 12 13  1  0
 13 14  2  0
 14 15  1  0
 15 16  2  0
 16 17  1  0
 17 18  1  0
 17 19  2  0
  6 20  1  0
 20 21  2  0
  2 22  1  0
 22 23  1  0
 23 24  1  0
 24  2  1  0
 21  4  1  0
 12 10  1  0
 19 13  1  0
  1 25  1  0
  1 26  1  0
  1 27  1  0
  3 28  1  0
  3 29  1  0
  5 30  1  0
  9 31  1  0
 10 32  1  6
 11 33  1  0
 11 34  1  0
 12 35  1  1
 14 36  1  0
 15 37  1  0
 16 38  1  0
 19 39  1  0
 22 40  1  0
 22 41  1  0
 24 42  1  0
 24 43  1  0
M  END
>  <meeko>  (2) 
{"is_sidechain": [false], "free_energy": -8.189, "intermolecular_energy": -10.433, "internal_energy": -0.519}

$$$$
ligand_52_conformer_3_docked
     RDKit          3D

 43 46  0  0  0  0  0  0  0  0999 V2000
   -3.5810   46.0990   56.0350 C   0  0  0  0  0  0  0  0  0  0  0  0
   -2.3320   45.2460   55.7580 C   0  0  0  0  0  0  0  0  0  0  0  0
   -2.1010   45.0140   54.2400 C   0  0  0  0  0  0  0  0  0  0  0  0
   -0.8580   44.3030   53.9290 N   0  0  0  0  0  0  0  0  0  0  0  0
    0.3690   44.8400   53.8120 C   0  0  0  0  0  0  0  0  0  0  0  0
    1.2270   43.7860   53.5760 C   0  0  0  0  0  0  0  0  0  0  0  0
    2.6850   43.8380   53.3760 C   0  0  0  0  0  0  0  0  0  0  0  0
    3.1900   43.2250   52.3970 O   0  0  0  0  0  0  0  0  0  0  0  0
    3.5310   44.5730   54.2730 N   0  0  0  0  0  0  0  0  0  0  0  0
    4.9740   44.6440   54.0670 C   0  0  2  0  0  0  0  0  0  0  0  0
    5.7480   44.8610   55.3660 C   0  0  0  0  0  0  0  0  0  0  0  0
    5.5710   46.0120   54.3790 C   0  0  1  0  0  0  0  0  0  0  0  0
    6.8000   46.4290   53.5910 C   0  0  0  0  0  0  0  0  0  0  0  0
    6.7240   46.3890   52.1890 C   0  0  0  0  0  0  0  0  0  0  0  0
    7.8200   46.7600   51.4030 C   0  0  0  0  0  0  0  0  0  0  0  0
    9.0070   47.1750   52.0090 C   0  0  0  0  0  0  0  0  0  0  0  0
    9.1010   47.2210   53.4020 C   0  0  0  0  0  0  0  0  0  0  0  0
   10.2540   47.6270   53.9880 F   0  0  0  0  0  0  0  0  0  0  0  0
    8.0080   46.8510   54.1920 C   0  0  0  0  0  0  0  0  0  0  0  0
    0.5060   42.6470   53.5730 N   0  0  0  0  0  0  0  0  0  0  0  0
   -0.7550   42.9900   53.7950 N   0  0  0  0  0  0  0  0  0  0  0  0
   -2.2350   44.0170   56.6470 C   0  0  0  0  0  0  0  0  0  0  0  0
   -1.0970   44.5090   57.3150 O   0  0  0  0  0  0  0  0  0  0  0  0
   -1.1150   45.6930   56.5500 C   0  0  0  0  0  0  0  0  0  0  0  0
   -3.7246   46.1970   57.1212 H   0  0  0  0  0  0  0  0  0  0  0  0
   -3.4495   47.0968   55.5910 H   0  0  0  0  0  0  0  0  0  0  0  0
   -4.4625   45.6134   55.5910 H   0  0  0  0  0  0  0  0  0  0  0  0
   -2.9436   44.4257   53.8477 H   0  0  0  0  0  0  0  0  0  0  0  0
   -2.0251   46.0074   53.7737 H   0  0  0  0  0  0  0  0  0  0  0  0
    0.6349   45.9046   53.8889 H   0  0  0  0  0  0  0  0  0  0  0  0
    3.1110   45.1580   55.0270 H   0  0  0  0  0  0  0  0  0  0  0  0
    5.0381   43.9436   53.2212 H   0  0  0  0  0  0  0  0  0  0  0  0
    5.2153   44.8745   56.3283 H   0  0  0  0  0  0  0  0  0  0  0  0
    6.6086   44.3757   55.8497 H   0  0  0  0  0  0  0  0  0  0  0  0
    5.1738   47.0362   54.4363 H   0  0  0  0  0  0  0  0  0  0  0  0
    5.7924   46.0623   51.7038 H   0  0  0  0  0  0  0  0  0  0  0  0
    7.7464   46.7247   50.3060 H   0  0  0  0  0  0  0  0  0  0  0  0
    9.8683   47.4658   51.3897 H   0  0  0  0  0  0  0  0  0  0  0  0
    8.0887   46.8886   55.2884 H   0  0  0  0  0  0  0  0  0  0  0  0
   -3.1058   43.8822   57.3054 H   0  0  0  0  0  0  0  0  0  0  0  0
   -2.1895   43.0228   56.1785 H   0  0  0  0  0  0  0  0  0  0  0  0
   -1.2898   46.5993   57.1484 H   0  0  0  0  0  0  0  0  0  0  0  0
   -0.2058   45.9908   56.0072 H   0  0  0  0  0  0  0  0  0  0  0  0
  1  2  1  0
  2  3  1  0
  3  4  1  0
  4  5  1  0
  5  6  2  0
  6  7  1  0
  7  8  2  0
  7  9  1  0
  9 10  1  0
 10 11  1  0
 11 12  1  0
 12 13  1  0
 13 14  2  0
 14 15  1  0
 15 16  2  0
 16 17  1  0
 17 18  1  0
 17 19  2  0
  6 20  1  0
 20 21  2  0
  2 22  1  0
 22 23  1  0
 23 24  1  0
 24  2  1  0
 21  4  1  0
 12 10  1  0
 19 13  1  0
  1 25  1  0
  1 26  1  0
  1 27  1  0
  3 28  1  0
  3 29  1  0
  5 30  1  0
  9 31  1  0
 10 32  1  6
 11 33  1  0
 11 34  1  0
 12 35  1  1
 14 36  1  0
 15 37  1  0
 16 38  1  0
 19 39  1  0
 22 40  1  0
 22 41  1  0
 24 42  1  0
 24 43  1  0
M  END
>  <meeko>  (3) 
{"is_sidechain": [false], "free_energy": -7.923, "intermolecular_energy": -10.297, "internal_energy": -0.31}

$$$$
ligand_52_conformer_3_docked
     RDKit          3D

 43 46  0  0  0  0  0  0  0  0999 V2000
    4.5620   41.6950   44.9060 C   0  0  0  0  0  0  0  0  0  0  0  0
    3.4000   40.7710   45.3050 C   0  0  0  0  0  0  0  0  0  0  0  0
    3.8210   39.7180   46.3650 C   0  0  0  0  0  0  0  0  0  0  0  0
    4.0090   40.2690   47.7090 N   0  0  0  0  0  0  0  0  0  0  0  0
    4.9130   41.1930   48.0820 C   0  0  0  0  0  0  0  0  0  0  0  0
    4.6750   41.4430   49.4170 C   0  0  0  0  0  0  0  0  0  0  0  0
    5.3910   42.3790   50.3000 C   0  0  0  0  0  0  0  0  0  0  0  0
    6.6400   42.2670   50.4250 O   0  0  0  0  0  0  0  0  0  0  0  0
    4.6920   43.4100   51.0130 N   0  0  0  0  0  0  0  0  0  0  0  0
    5.3990   44.3520   51.8740 C   0  0  2  0  0  0  0  0  0  0  0  0
    4.7630   45.7410   51.8820 C   0  0  0  0  0  0  0  0  0  0  0  0
    6.0600   45.4980   51.1150 C   0  0  1  0  0  0  0  0  0  0  0  0
    7.3260   46.0880   51.7120 C   0  0  0  0  0  0  0  0  0  0  0  0
    7.1910   46.9340   52.8250 C   0  0  0  0  0  0  0  0  0  0  0  0
    8.3160   47.5110   53.4240 C   0  0  0  0  0  0  0  0  0  0  0  0
    9.5900   47.2510   52.9160 C   0  0  0  0  0  0  0  0  0  0  0  0
    9.7430   46.4120   51.8100 C   0  0  0  0  0  0  0  0  0  0  0  0
   10.9810   46.1580   51.3210 F   0  0  0  0  0  0  0  0  0  0  0  0
    8.6210   45.8320   51.2080 C   0  0  0  0  0  0  0  0  0  0  0  0
    3.6330   40.6840   49.8100 N   0  0  0  0  0  0  0  0  0  0  0  0
    3.2450   39.9870   48.7520 N   0  0  0  0  0  0  0  0  0  0  0  0
    2.6130   40.2480   44.1150 C   0  0  0  0  0  0  0  0  0  0  0  0
    1.4590   40.9710   44.4750 O   0  0  0  0  0  0  0  0  0  0  0  0
    2.1120   41.5220   45.5960 C   0  0  0  0  0  0  0  0  0  0  0  0
    5.0498   42.0829   45.8124 H   0  0  0  0  0  0  0  0  0  0  0  0
    5.2928   41.1286   44.3101 H   0  0  0  0  0  0  0  0  0  0  0  0
    4.1748   42.5346   44.3101 H   0  0  0  0  0  0  0  0  0  0  0  0
    3.0400   38.9450   46.4141 H   0  0  0  0  0  0  0  0  0  0  0  0
    4.7943   39.3166   46.0462 H   0  0  0  0  0  0  0  0  0  0  0  0
    5.6855   41.6554   47.4500 H   0  0  0  0  0  0  0  0  0  0  0  0
    3.6750   43.5680   50.8400 H   0  0  0  0  0  0  0  0  0  0  0  0
    5.7296   43.6344   52.6394 H   0  0  0  0  0  0  0  0  0  0  0  0
    3.8256   45.9201   51.3350 H   0  0  0  0  0  0  0  0  0  0  0  0
    4.4412   46.4451   52.6634 H   0  0  0  0  0  0  0  0  0  0  0  0
    6.3947   45.6496   50.0782 H   0  0  0  0  0  0  0  0  0  0  0  0
    6.1903   47.1451   53.2300 H   0  0  0  0  0  0  0  0  0  0  0  0
    8.1965   48.1704   54.2963 H   0  0  0  0  0  0  0  0  0  0  0  0
   10.4734   47.7069   53.3868 H   0  0  0  0  0  0  0  0  0  0  0  0
    8.7479   45.1725   50.3368 H   0  0  0  0  0  0  0  0  0  0  0  0
    3.0340   40.5494   43.1445 H   0  0  0  0  0  0  0  0  0  0  0  0
    2.5348   39.1611   43.9648 H   0  0  0  0  0  0  0  0  0  0  0  0
    2.2213   42.6154   45.5461 H   0  0  0  0  0  0  0  0  0  0  0  0
    1.6472   41.4176   46.5875 H   0  0  0  0  0  0  0  0  0  0  0  0
  1  2  1  0
  2  3  1  0
  3  4  1  0
  4  5  1  0
  5  6  2  0
  6  7  1  0
  7  8  2  0
  7  9  1  0
  9 10  1  0
 10 11  1  0
 11 12  1  0
 12 13  1  0
 13 14  2  0
 14 15  1  0
 15 16  2  0
 16 17  1  0
 17 18  1  0
 17 19  2  0
  6 20  1  0
 20 21  2  0
  2 22  1  0
 22 23  1  0
 23 24  1  0
 24  2  1  0
 21  4  1  0
 12 10  1  0
 19 13  1  0
  1 25  1  0
  1 26  1  0
  1 27  1  0
  3 28  1  0
  3 29  1  0
  5 30  1  0
  9 31  1  0
 10 32  1  1
 11 33  1  0
 11 34  1  0
 12 35  1  6
 14 36  1  0
 15 37  1  0
 16 38  1  0
 19 39  1  0
 22 40  1  0
 22 41  1  0
 24 42  1  0
 24 43  1  0
M  END
>  <meeko>  (4) 
{"is_sidechain": [false], "free_energy": -7.832, "intermolecular_energy": -10.162, "internal_energy": -0.328}

$$$$
ligand_52_conformer_3_docked
     RDKit          3D

 43 46  0  0  0  0  0  0  0  0999 V2000
    4.1780   37.3690   44.2570 C   0  0  0  0  0  0  0  0  0  0  0  0
    3.5820   38.6610   43.6730 C   0  0  0  0  0  0  0  0  0  0  0  0
    2.4480   39.2410   44.5610 C   0  0  0  0  0  0  0  0  0  0  0  0
    2.7990   39.3480   45.9790 N   0  0  0  0  0  0  0  0  0  0  0  0
    3.5470   40.3060   46.5540 C   0  0  0  0  0  0  0  0  0  0  0  0
    3.5520   40.0280   47.9050 C   0  0  0  0  0  0  0  0  0  0  0  0
    4.2280   40.7790   48.9770 C   0  0  0  0  0  0  0  0  0  0  0  0
    5.4170   41.1590   48.8010 O   0  0  0  0  0  0  0  0  0  0  0  0
    3.5560   41.0810   50.2080 N   0  0  0  0  0  0  0  0  0  0  0  0
    4.2140   41.8420   51.2660 C   0  0  2  0  0  0  0  0  0  0  0  0
    3.2260   42.4790   52.2400 C   0  0  0  0  0  0  0  0  0  0  0  0
    3.9410   43.3400   51.2030 C   0  0  1  0  0  0  0  0  0  0  0  0
    5.0290   44.2660   51.7190 C   0  0  0  0  0  0  0  0  0  0  0  0
    5.0720   44.5210   53.1000 C   0  0  0  0  0  0  0  0  0  0  0  0
    6.0470   45.3630   53.6420 C   0  0  0  0  0  0  0  0  0  0  0  0
    6.9920   45.9650   52.8090 C   0  0  0  0  0  0  0  0  0  0  0  0
    6.9650   45.7240   51.4340 C   0  0  0  0  0  0  0  0  0  0  0  0
    7.8860   46.3070   50.6280 F   0  0  0  0  0  0  0  0  0  0  0  0
    5.9920   44.8810   50.8880 C   0  0  0  0  0  0  0  0  0  0  0  0
    2.8010   38.9280   48.1130 N   0  0  0  0  0  0  0  0  0  0  0  0
    2.3520   38.5410   46.9280 N   0  0  0  0  0  0  0  0  0  0  0  0
    3.2880   38.5670   42.1850 C   0  0  0  0  0  0  0  0  0  0  0  0
    4.2820   39.5120   41.8620 O   0  0  0  0  0  0  0  0  0  0  0  0
    4.6380   39.6540   43.2180 C   0  0  0  0  0  0  0  0  0  0  0  0
    4.1551   37.4186   45.3556 H   0  0  0  0  0  0  0  0  0  0  0  0
    3.5870   36.5060   43.9165 H   0  0  0  0  0  0  0  0  0  0  0  0
    5.2181   37.2584   43.9165 H   0  0  0  0  0  0  0  0  0  0  0  0
    2.1972   40.2456   44.1898 H   0  0  0  0  0  0  0  0  0  0  0  0
    1.6014   38.5418   44.4940 H   0  0  0  0  0  0  0  0  0  0  0  0
    4.0527   41.1423   46.0491 H   0  0  0  0  0  0  0  0  0  0  0  0
    2.5440   40.8530   50.3220 H   0  0  0  0  0  0  0  0  0  0  0  0
    5.1170   41.2204   51.3565 H   0  0  0  0  0  0  0  0  0  0  0  0
    2.1489   42.2789   52.1408 H   0  0  0  0  0  0  0  0  0  0  0  0
    3.1198   42.5061   53.3345 H   0  0  0  0  0  0  0  0  0  0  0  0
    3.6235   44.0376   50.4139 H   0  0  0  0  0  0  0  0  0  0  0  0
    4.3294   44.0524   53.7625 H   0  0  0  0  0  0  0  0  0  0  0  0
    6.0699   45.5515   54.7255 H   0  0  0  0  0  0  0  0  0  0  0  0
    7.7578   46.6292   53.2360 H   0  0  0  0  0  0  0  0  0  0  0  0
    5.9763   44.6954   49.8039 H   0  0  0  0  0  0  0  0  0  0  0  0
    3.4778   37.5692   41.7627 H   0  0  0  0  0  0  0  0  0  0  0  0
    2.2592   38.7346   41.8336 H   0  0  0  0  0  0  0  0  0  0  0  0
    5.6665   39.3316   43.4374 H   0  0  0  0  0  0  0  0  0  0  0  0
    4.6502   40.6599   43.6630 H   0  0  0  0  0  0  0  0  0  0  0  0
  1  2  1  0
  2  3  1  0
  3  4  1  0
  4  5  1  0
  5  6  2  0
  6  7  1  0
  7  8  2  0
  7  9  1  0
  9 10  1  0
 10 11  1  0
 11 12  1  0
 12 13  1  0
 13 14  2  0
 14 15  1  0
 15 16  2  0
 16 17  1  0
 17 18  1  0
 17 19  2  0
  6 20  1  0
 20 21  2  0
  2 22  1  0
 22 23  1  0
 23 24  1  0
 24  2  1  0
 21  4  1  0
 12 10  1  0
 19 13  1  0
  1 25  1  0
  1 26  1  0
  1 27  1  0
  3 28  1  0
  3 29  1  0
  5 30  1  0
  9 31  1  0
 10 32  1  1
 11 33  1  0
 11 34  1  0
 12 35  1  6
 14 36  1  0
 15 37  1  0
 16 38  1  0
 19 39  1  0
 22 40  1  0
 22 41  1  0
 24 42  1  0
 24 43  1  0
M  END
>  <meeko>  (5) 
{"is_sidechain": [false], "free_energy": -7.568, "intermolecular_energy": -9.639, "internal_energy": -0.511}

$$$$
