MODEL 1
REMARK VINA RESULT:   -11.848      0.000      0.000
REMARK INTER + INTRA:         -13.377
REMARK INTER:                 -13.233
REMARK INTRA:                  -0.144
REMARK UNBOUND:                -0.144
REMARK SMILES CN1C(=O)c2cccc3c(S(=O)(=O)N4Cc5ccccc5-c5ccccc5C4)ccc1c23
REMARK SMILES IDX 1 1 2 2 3 3 4 4 5 5 6 6 7 7 8 8 9 9 10 10 29 11 30 12 31 13
REMARK SMILES IDX 32 14 11 15 12 16 13 17 14 18 15 19 28 20 16 21 27 22 17 23
REMARK SMILES IDX 21 24 26 25 22 26 18 27 20 28 25 29 23 30 19 31 24 32
REMARK H PARENT
ROOT
ATOM      1  C   UNL     1      -2.049  44.252  56.263  1.00  0.00     0.153 C 
ATOM      2  N   UNL     1      -1.061  44.047  55.211  1.00  0.00    -0.311 N 
ATOM      3  C   UNL     1      -1.352  43.786  53.828  1.00  0.00     0.258 C 
ATOM      4  O   UNL     1      -2.452  43.348  53.401  1.00  0.00    -0.269 OA
ATOM      5  C   UNL     1      -0.199  44.150  53.009  1.00  0.00     0.050 A 
ATOM      6  C   UNL     1       0.065  44.116  51.641  1.00  0.00     0.014 A 
ATOM      7  C   UNL     1       1.317  44.604  51.202  1.00  0.00     0.002 A 
ATOM      8  C   UNL     1       2.261  45.122  52.127  1.00  0.00     0.010 A 
ATOM      9  C   UNL     1       1.956  45.152  53.509  1.00  0.00     0.005 A 
ATOM     10  C   UNL     1       2.786  45.658  54.543  1.00  0.00     0.090 A 
ATOM     11  C   UNL     1       2.312  45.636  55.886  1.00  0.00     0.024 A 
ATOM     12  C   UNL     1       1.035  45.119  56.205  1.00  0.00     0.028 A 
ATOM     13  C   UNL     1       0.254  44.617  55.165  1.00  0.00     0.052 A 
ATOM     14  C   UNL     1       0.720  44.645  53.883  1.00  0.00     0.020 A 
ENDROOT
BRANCH  10  15
ATOM     15  S   UNL     1       4.399  46.295  54.199  1.00  0.00     0.244 S 
ATOM     16  O   UNL     1       5.391  45.746  55.186  1.00  0.00    -0.207 OA
ATOM     17  O   UNL     1       4.360  47.792  54.334  1.00  0.00    -0.207 OA
BRANCH  15  18
ATOM     18  N   UNL     1       4.878  45.852  52.576  1.00  0.00    -0.189 NA
ATOM     19  C   UNL     1       5.554  44.536  52.599  1.00  0.00     0.139 C 
ATOM     20  C   UNL     1       5.644  46.947  51.937  1.00  0.00     0.139 C 
ATOM     21  C   UNL     1       6.192  44.191  51.271  1.00  0.00    -0.025 A 
ATOM     22  C   UNL     1       7.128  46.923  52.249  1.00  0.00    -0.025 A 
ATOM     23  C   UNL     1       5.616  43.212  50.445  1.00  0.00     0.006 A 
ATOM     24  C   UNL     1       7.386  44.833  50.865  1.00  0.00    -0.014 A 
ATOM     25  C   UNL     1       7.687  47.917  53.069  1.00  0.00     0.006 A 
ATOM     26  C   UNL     1       7.966  45.930  51.685  1.00  0.00    -0.014 A 
ATOM     27  C   UNL     1       6.228  42.854  49.242  1.00  0.00     0.000 A 
ATOM     28  C   UNL     1       7.993  44.458  49.653  1.00  0.00     0.009 A 
ATOM     29  C   UNL     1       9.061  47.935  53.318  1.00  0.00     0.000 A 
ATOM     30  C   UNL     1       9.347  45.967  51.941  1.00  0.00     0.009 A 
ATOM     31  C   UNL     1       7.416  43.472  48.850  1.00  0.00     0.001 A 
ATOM     32  C   UNL     1       9.889  46.965  52.753  1.00  0.00     0.001 A 
ENDBRANCH  15  18
ENDBRANCH  10  15
TORSDOF 2
ENDMDL
MODEL 2
REMARK VINA RESULT:   -11.436      1.023      2.259
REMARK INTER + INTRA:         -12.917
REMARK INTER:                 -12.539
REMARK INTRA:                  -0.379
REMARK UNBOUND:                -0.144
REMARK SMILES CN1C(=O)c2cccc3c(S(=O)(=O)N4Cc5ccccc5-c5ccccc5C4)ccc1c23
REMARK SMILES IDX 1 1 2 2 3 3 4 4 5 5 6 6 7 7 8 8 9 9 10 10 29 11 30 12 31 13
REMARK SMILES IDX 32 14 11 15 12 16 13 17 14 18 15 19 28 20 16 21 27 22 17 23
REMARK SMILES IDX 21 24 26 25 22 26 18 27 20 28 25 29 23 30 19 31 24 32
REMARK H PARENT
ROOT
ATOM      1  C   UNL     1      -2.881  43.434  52.666  1.00  0.00     0.153 C 
ATOM      2  N   UNL     1      -2.040  44.219  53.562  1.00  0.00    -0.311 N 
ATOM      3  C   UNL     1      -2.179  44.291  54.991  1.00  0.00     0.258 C 
ATOM      4  O   UNL     1      -3.226  43.994  55.623  1.00  0.00    -0.269 OA
ATOM      5  C   UNL     1      -0.913  44.713  55.584  1.00  0.00     0.050 A 
ATOM      6  C   UNL     1      -0.483  44.935  56.891  1.00  0.00     0.014 A 
ATOM      7  C   UNL     1       0.867  45.307  57.084  1.00  0.00     0.002 A 
ATOM      8  C   UNL     1       1.752  45.433  55.980  1.00  0.00     0.010 A 
ATOM      9  C   UNL     1       1.286  45.189  54.666  1.00  0.00     0.005 A 
ATOM     10  C   UNL     1       2.053  45.253  53.475  1.00  0.00     0.090 A 
ATOM     11  C   UNL     1       1.431  44.950  52.231  1.00  0.00     0.024 A 
ATOM     12  C   UNL     1       0.065  44.590  52.162  1.00  0.00     0.028 A 
ATOM     13  C   UNL     1      -0.663  44.552  53.352  1.00  0.00     0.052 A 
ATOM     14  C   UNL     1      -0.052  44.844  54.537  1.00  0.00     0.020 A 
ENDROOT
BRANCH  10  15
ATOM     15  S   UNL     1       3.759  45.719  53.504  1.00  0.00     0.244 S 
ATOM     16  O   UNL     1       4.481  44.963  54.586  1.00  0.00    -0.207 OA
ATOM     17  O   UNL     1       3.848  47.189  53.801  1.00  0.00    -0.207 OA
BRANCH  15  18
ATOM     18  N   UNL     1       4.495  45.373  51.956  1.00  0.00    -0.189 NA
ATOM     19  C   UNL     1       5.306  44.139  52.054  1.00  0.00     0.139 C 
ATOM     20  C   UNL     1       5.210  46.562  51.437  1.00  0.00     0.139 C 
ATOM     21  C   UNL     1       6.148  43.902  50.819  1.00  0.00    -0.025 A 
ATOM     22  C   UNL     1       6.633  46.693  51.945  1.00  0.00    -0.025 A 
ATOM     23  C   UNL     1       5.799  42.887  49.913  1.00  0.00     0.006 A 
ATOM     24  C   UNL     1       7.305  44.682  50.584  1.00  0.00    -0.014 A 
ATOM     25  C   UNL     1       6.965  47.721  52.843  1.00  0.00     0.006 A 
ATOM     26  C   UNL     1       7.644  45.813  51.486  1.00  0.00    -0.014 A 
ATOM     27  C   UNL     1       6.601  42.631  48.799  1.00  0.00     0.000 A 
ATOM     28  C   UNL     1       8.105  44.407  49.461  1.00  0.00     0.009 A 
ATOM     29  C   UNL     1       8.283  47.883  53.275  1.00  0.00     0.000 A 
ATOM     30  C   UNL     1       8.967  45.995  51.926  1.00  0.00     0.009 A 
ATOM     31  C   UNL     1       7.753  43.386  48.576  1.00  0.00     0.001 A 
ATOM     32  C   UNL     1       9.282  47.025  52.815  1.00  0.00     0.001 A 
ENDBRANCH  15  18
ENDBRANCH  10  15
TORSDOF 2
ENDMDL
MODEL 3
REMARK VINA RESULT:   -10.975      2.167      8.442
REMARK INTER + INTRA:         -12.402
REMARK INTER:                 -11.903
REMARK INTRA:                  -0.499
REMARK UNBOUND:                -0.144
REMARK SMILES CN1C(=O)c2cccc3c(S(=O)(=O)N4Cc5ccccc5-c5ccccc5C4)ccc1c23
REMARK SMILES IDX 1 1 2 2 3 3 4 4 5 5 6 6 7 7 8 8 9 9 10 10 29 11 30 12 31 13
REMARK SMILES IDX 32 14 11 15 12 16 13 17 14 18 15 19 28 20 16 21 27 22 17 23
REMARK SMILES IDX 21 24 26 25 22 26 18 27 20 28 25 29 23 30 19 31 24 32
REMARK H PARENT
ROOT
ATOM      1  C   UNL     1       9.896  47.391  54.310  1.00  0.00     0.153 C 
ATOM      2  N   UNL     1       9.155  46.991  53.119  1.00  0.00    -0.311 N 
ATOM      3  C   UNL     1       9.718  46.368  51.953  1.00  0.00     0.258 C 
ATOM      4  O   UNL     1      10.938  46.406  51.641  1.00  0.00    -0.269 OA
ATOM      5  C   UNL     1       8.671  45.658  51.225  1.00  0.00     0.050 A 
ATOM      6  C   UNL     1       8.651  44.892  50.061  1.00  0.00     0.014 A 
ATOM      7  C   UNL     1       7.420  44.312  49.677  1.00  0.00     0.002 A 
ATOM      8  C   UNL     1       6.253  44.495  50.465  1.00  0.00     0.010 A 
ATOM      9  C   UNL     1       6.311  45.269  51.649  1.00  0.00     0.005 A 
ATOM     10  C   UNL     1       5.239  45.520  52.544  1.00  0.00     0.090 A 
ATOM     11  C   UNL     1       5.477  46.303  53.709  1.00  0.00     0.024 A 
ATOM     12  C   UNL     1       6.757  46.835  53.987  1.00  0.00     0.028 A 
ATOM     13  C   UNL     1       7.783  46.581  53.077  1.00  0.00     0.052 A 
ATOM     14  C   UNL     1       7.541  45.827  51.966  1.00  0.00     0.020 A 
ENDROOT
BRANCH  10  15
ATOM     15  S   UNL     1       3.614  44.896  52.231  1.00  0.00     0.244 S 
ATOM     16  O   UNL     1       3.603  43.398  52.368  1.00  0.00    -0.207 OA
ATOM     17  O   UNL     1       3.227  45.255  50.824  1.00  0.00    -0.207 OA
BRANCH  15  18
ATOM     18  N   UNL     1       2.481  45.598  53.363  1.00  0.00    -0.189 NA
ATOM     19  C   UNL     1       2.317  44.697  54.526  1.00  0.00     0.139 C 
ATOM     20  C   UNL     1       1.225  45.984  52.678  1.00  0.00     0.139 C 
ATOM     21  C   UNL     1       1.188  45.130  55.436  1.00  0.00    -0.025 A 
ATOM     22  C   UNL     1       0.218  44.856  52.559  1.00  0.00    -0.025 A 
ATOM     23  C   UNL     1       1.472  45.712  56.683  1.00  0.00     0.006 A 
ATOM     24  C   UNL     1      -0.158  44.928  55.050  1.00  0.00    -0.014 A 
ATOM     25  C   UNL     1      -0.060  44.295  51.302  1.00  0.00     0.006 A 
ATOM     26  C   UNL     1      -0.480  44.392  53.701  1.00  0.00    -0.014 A 
ATOM     27  C   UNL     1       0.435  46.066  57.548  1.00  0.00     0.000 A 
ATOM     28  C   UNL     1      -1.191  45.286  55.935  1.00  0.00     0.009 A 
ATOM     29  C   UNL     1      -1.025  43.294  51.174  1.00  0.00     0.000 A 
ATOM     30  C   UNL     1      -1.452  43.388  53.553  1.00  0.00     0.009 A 
ATOM     31  C   UNL     1      -0.892  45.850  57.177  1.00  0.00     0.001 A 
ATOM     32  C   UNL     1      -1.721  42.844  52.295  1.00  0.00     0.001 A 
ENDBRANCH  15  18
ENDBRANCH  10  15
TORSDOF 2
ENDMDL
MODEL 4
REMARK VINA RESULT:   -10.647      1.922      7.686
REMARK INTER + INTRA:         -12.035
REMARK INTER:                 -12.378
REMARK INTRA:                   0.343
REMARK UNBOUND:                -0.144
REMARK SMILES CN1C(=O)c2cccc3c(S(=O)(=O)N4Cc5ccccc5-c5ccccc5C4)ccc1c23
REMARK SMILES IDX 1 1 2 2 3 3 4 4 5 5 6 6 7 7 8 8 9 9 10 10 29 11 30 12 31 13
REMARK SMILES IDX 32 14 11 15 12 16 13 17 14 18 15 19 28 20 16 21 27 22 17 23
REMARK SMILES IDX 21 24 26 25 22 26 18 27 20 28 25 29 23 30 19 31 24 32
REMARK H PARENT
ROOT
ATOM      1  C   UNL     1      10.566  46.186  51.870  1.00  0.00     0.153 C 
ATOM      2  N   UNL     1       9.243  45.973  51.296  1.00  0.00    -0.311 N 
ATOM      3  C   UNL     1       8.881  44.908  50.401  1.00  0.00     0.258 C 
ATOM      4  O   UNL     1       9.701  44.243  49.714  1.00  0.00    -0.269 OA
ATOM      5  C   UNL     1       7.437  44.697  50.451  1.00  0.00     0.050 A 
ATOM      6  C   UNL     1       6.566  43.815  49.815  1.00  0.00     0.014 A 
ATOM      7  C   UNL     1       5.197  43.883  50.160  1.00  0.00     0.002 A 
ATOM      8  C   UNL     1       4.736  44.810  51.132  1.00  0.00     0.010 A 
ATOM      9  C   UNL     1       5.649  45.683  51.768  1.00  0.00     0.005 A 
ATOM     10  C   UNL     1       5.342  46.640  52.769  1.00  0.00     0.090 A 
ATOM     11  C   UNL     1       6.392  47.425  53.325  1.00  0.00     0.024 A 
ATOM     12  C   UNL     1       7.731  47.269  52.897  1.00  0.00     0.028 A 
ATOM     13  C   UNL     1       7.994  46.329  51.900  1.00  0.00     0.052 A 
ATOM     14  C   UNL     1       6.977  45.583  51.378  1.00  0.00     0.020 A 
ENDROOT
BRANCH  10  15
ATOM     15  S   UNL     1       3.681  46.890  53.323  1.00  0.00     0.244 S 
ATOM     16  O   UNL     1       3.075  48.072  52.619  1.00  0.00    -0.207 OA
ATOM     17  O   UNL     1       3.707  47.168  54.800  1.00  0.00    -0.207 OA
BRANCH  15  18
ATOM     18  N   UNL     1       2.727  45.460  52.998  1.00  0.00    -0.189 NA
ATOM     19  C   UNL     1       1.435  45.851  52.392  1.00  0.00     0.139 C 
ATOM     20  C   UNL     1       2.628  44.609  54.207  1.00  0.00     0.139 C 
ATOM     21  C   UNL     1       0.470  44.690  52.290  1.00  0.00    -0.025 A 
ATOM     22  C   UNL     1       1.499  45.000  55.142  1.00  0.00    -0.025 A 
ATOM     23  C   UNL     1       0.200  44.107  51.041  1.00  0.00     0.006 A 
ATOM     24  C   UNL     1      -0.184  44.203  53.446  1.00  0.00    -0.014 A 
ATOM     25  C   UNL     1       1.791  45.572  56.391  1.00  0.00     0.006 A 
ATOM     26  C   UNL     1       0.151  44.751  54.786  1.00  0.00    -0.014 A 
ATOM     27  C   UNL     1      -0.729  43.069  50.934  1.00  0.00     0.000 A 
ATOM     28  C   UNL     1      -1.120  43.160  53.321  1.00  0.00     0.009 A 
ATOM     29  C   UNL     1       0.762  45.885  57.282  1.00  0.00     0.000 A 
ATOM     30  C   UNL     1      -0.872  45.066  55.697  1.00  0.00     0.009 A 
ATOM     31  C   UNL     1      -1.389  42.600  52.070  1.00  0.00     0.001 A 
ATOM     32  C   UNL     1      -0.565  45.630  56.938  1.00  0.00     0.001 A 
ENDBRANCH  15  18
ENDBRANCH  10  15
TORSDOF 2
ENDMDL
MODEL 5
REMARK VINA RESULT:   -10.438      2.217      8.173
REMARK INTER + INTRA:         -11.802
REMARK INTER:                 -11.511
REMARK INTRA:                  -0.291
REMARK UNBOUND:                -0.144
REMARK SMILES CN1C(=O)c2cccc3c(S(=O)(=O)N4Cc5ccccc5-c5ccccc5C4)ccc1c23
REMARK SMILES IDX 1 1 2 2 3 3 4 4 5 5 6 6 7 7 8 8 9 9 10 10 29 11 30 12 31 13
REMARK SMILES IDX 32 14 11 15 12 16 13 17 14 18 15 19 28 20 16 21 27 22 17 23
REMARK SMILES IDX 21 24 26 25 22 26 18 27 20 28 25 29 23 30 19 31 24 32
REMARK H PARENT
ROOT
ATOM      1  C   UNL     1       6.233  41.779  48.518  1.00  0.00     0.153 C 
ATOM      2  N   UNL     1       6.429  42.727  49.608  1.00  0.00    -0.311 N 
ATOM      3  C   UNL     1       7.407  43.781  49.635  1.00  0.00     0.258 C 
ATOM      4  O   UNL     1       8.440  43.815  48.917  1.00  0.00    -0.269 OA
ATOM      5  C   UNL     1       6.988  44.811  50.581  1.00  0.00     0.050 A 
ATOM      6  C   UNL     1       7.533  46.026  50.992  1.00  0.00     0.014 A 
ATOM      7  C   UNL     1       6.798  46.793  51.924  1.00  0.00     0.002 A 
ATOM      8  C   UNL     1       5.542  46.341  52.410  1.00  0.00     0.010 A 
ATOM      9  C   UNL     1       5.012  45.108  51.963  1.00  0.00     0.005 A 
ATOM     10  C   UNL     1       3.768  44.540  52.340  1.00  0.00     0.090 A 
ATOM     11  C   UNL     1       3.372  43.295  51.773  1.00  0.00     0.024 A 
ATOM     12  C   UNL     1       4.197  42.616  50.846  1.00  0.00     0.028 A 
ATOM     13  C   UNL     1       5.420  43.196  50.511  1.00  0.00     0.052 A 
ATOM     14  C   UNL     1       5.785  44.390  51.061  1.00  0.00     0.020 A 
ENDROOT
BRANCH  10  15
ATOM     15  S   UNL     1       2.710  45.339  53.511  1.00  0.00     0.244 S 
ATOM     16  O   UNL     1       2.457  46.760  53.091  1.00  0.00    -0.207 OA
ATOM     17  O   UNL     1       3.396  45.345  54.848  1.00  0.00    -0.207 OA
BRANCH  15  18
ATOM     18  N   UNL     1       1.191  44.479  53.619  1.00  0.00    -0.189 NA
ATOM     19  C   UNL     1       0.111  45.300  53.028  1.00  0.00     0.139 C 
ATOM     20  C   UNL     1       0.947  44.015  55.005  1.00  0.00     0.139 C 
ATOM     21  C   UNL     1      -1.263  44.720  53.286  1.00  0.00    -0.025 A 
ATOM     22  C   UNL     1       0.284  45.051  55.892  1.00  0.00    -0.025 A 
ATOM     23  C   UNL     1      -1.975  44.104  52.244  1.00  0.00     0.006 A 
ATOM     24  C   UNL     1      -1.849  44.818  54.571  1.00  0.00    -0.014 A 
ATOM     25  C   UNL     1       1.010  45.648  56.936  1.00  0.00     0.006 A 
ATOM     26  C   UNL     1      -1.079  45.391  55.706  1.00  0.00    -0.014 A 
ATOM     27  C   UNL     1      -3.264  43.613  52.464  1.00  0.00     0.000 A 
ATOM     28  C   UNL     1      -3.149  44.323  54.775  1.00  0.00     0.009 A 
ATOM     29  C   UNL     1       0.393  46.562  57.793  1.00  0.00     0.000 A 
ATOM     30  C   UNL     1      -1.686  46.308  56.581  1.00  0.00     0.009 A 
ATOM     31  C   UNL     1      -3.850  43.726  53.725  1.00  0.00     0.001 A 
ATOM     32  C   UNL     1      -0.952  46.889  57.618  1.00  0.00     0.001 A 
ENDBRANCH  15  18
ENDBRANCH  10  15
TORSDOF 2
ENDMDL
