ligand_57_conformer_1_docked
     RDKit          3D

 45 49  0  0  0  0  0  0  0  0999 V2000
    1.1740   41.9500   53.8030 O   0  0  0  0  0  0  0  0  0  0  0  0
    1.5190   43.1110   53.0950 C   0  0  0  0  0  0  0  0  0  0  0  0
    2.5160   42.7700   51.9760 C   0  0  0  0  0  0  0  0  0  0  0  0
    3.9870   43.1090   52.3060 C   0  0  2  0  0  0  0  0  0  0  0  0
    4.2290   44.6230   52.5770 C   0  0  0  0  0  0  0  0  0  0  0  0
    5.1560   45.0720   51.5380 N   0  0  0  0  0  0  0  0  0  0  0  0
    5.6790   46.4320   51.4330 C   0  0  0  0  0  0  0  0  0  0  0  0
    7.0830   46.5150   52.0330 C   0  0  2  0  0  0  0  0  0  0  0  0
    7.6130   47.8650   52.4950 C   0  0  0  0  0  0  0  0  0  0  0  0
    8.4770   46.9090   53.2920 C   0  0  2  0  0  0  0  0  0  0  0  0
    9.2050   47.3870   54.5070 C   0  0  0  0  0  0  0  0  0  0  0  0
   10.2760   46.7680   55.0400 N   0  0  0  0  0  0  0  0  0  0  0  0
   10.6500   47.5460   56.0430 N   0  0  0  0  0  0  0  0  0  0  0  0
    9.8440   48.5920   56.1030 N   0  0  0  0  0  0  0  0  0  0  0  0
    8.9300   48.5360   55.1510 N   0  0  0  0  0  0  0  0  0  0  0  0
    9.2250   46.2340   52.1550 C   0  0  0  0  0  0  0  0  0  0  0  0
    8.1440   45.9700   51.2670 O   0  0  0  0  0  0  0  0  0  0  0  0
    7.3090   45.9520   53.4290 C   0  0  0  0  0  0  0  0  0  0  0  0
    5.5570   43.9520   50.7640 C   0  0  0  0  0  0  0  0  0  0  0  0
    6.5020   43.9280   49.7340 C   0  0  0  0  0  0  0  0  0  0  0  0
    6.7770   42.7010   49.1080 C   0  0  0  0  0  0  0  0  0  0  0  0
    6.1210   41.5280   49.5270 C   0  0  0  0  0  0  0  0  0  0  0  0
    5.1850   41.5770   50.5720 C   0  0  0  0  0  0  0  0  0  0  0  0
    4.9180   42.8110   51.1730 C   0  0  0  0  0  0  0  0  0  0  0  0
    0.6820   41.3660   53.1670 H   0  0  0  0  0  0  0  0  0  0  0  0
    0.6126   43.5507   52.6533 H   0  0  0  0  0  0  0  0  0  0  0  0
    1.9847   43.8292   53.7859 H   0  0  0  0  0  0  0  0  0  0  0  0
    2.4490   41.6910   51.7726 H   0  0  0  0  0  0  0  0  0  0  0  0
    2.2384   43.3880   51.1094 H   0  0  0  0  0  0  0  0  0  0  0  0
    4.1816   42.4910   53.1949 H   0  0  0  0  0  0  0  0  0  0  0  0
    3.2824   45.1796   52.5121 H   0  0  0  0  0  0  0  0  0  0  0  0
    4.6372   44.7933   53.5842 H   0  0  0  0  0  0  0  0  0  0  0  0
    5.7208   46.7227   50.3729 H   0  0  0  0  0  0  0  0  0  0  0  0
    5.0151   47.1117   51.9873 H   0  0  0  0  0  0  0  0  0  0  0  0
    8.1254   48.4777   51.7386 H   0  0  0  0  0  0  0  0  0  0  0  0
    7.0172   48.6973   52.8978 H   0  0  0  0  0  0  0  0  0  0  0  0
    9.9250   49.3620   56.8020 H   0  0  0  0  0  0  0  0  0  0  0  0
    9.9702   46.9046   51.7023 H   0  0  0  0  0  0  0  0  0  0  0  0
    9.8099   45.3494   52.4472 H   0  0  0  0  0  0  0  0  0  0  0  0
    7.5545   44.8817   53.4944 H   0  0  0  0  0  0  0  0  0  0  0  0
    6.5772   45.9277   54.2499 H   0  0  0  0  0  0  0  0  0  0  0  0
    7.0178   44.8479   49.4213 H   0  0  0  0  0  0  0  0  0  0  0  0
    7.5079   42.6565   48.2871 H   0  0  0  0  0  0  0  0  0  0  0  0
    6.3426   40.5700   49.0339 H   0  0  0  0  0  0  0  0  0  0  0  0
    4.6727   40.6644   50.9107 H   0  0  0  0  0  0  0  0  0  0  0  0
  1  2  1  0
  2  3  1  0
  3  4  1  0
  4  5  1  0
  5  6  1  0
  6  7  1  0
  8  7  1  6
  8  9  1  0
  9 10  1  0
 10 11  1  1
 11 12  1  0
 12 13  2  0
 13 14  1  0
 14 15  1  0
 10 16  1  0
 16 17  1  0
 10 18  1  0
  6 19  1  0
 19 20  2  0
 20 21  1  0
 21 22  2  0
 22 23  1  0
 23 24  2  0
 24  4  1  0
 17  8  1  0
 24 19  1  0
 18  8  1  0
 15 11  2  0
  1 25  1  0
  2 26  1  0
  2 27  1  0
  3 28  1  0
  3 29  1  0
  4 30  1  1
  5 31  1  0
  5 32  1  0
  7 33  1  0
  7 34  1  0
  9 35  1  0
  9 36  1  0
 14 37  1  0
 16 38  1  0
 16 39  1  0
 18 40  1  0
 18 41  1  0
 20 42  1  0
 21 43  1  0
 22 44  1  0
 23 45  1  0
M  END
>  <meeko>  (1) 
{"is_sidechain": [false], "free_energy": -9.555, "intermolecular_energy": -12.628, "internal_energy": 0.07}

$$$$
ligand_57_conformer_1_docked
     RDKit          3D

 45 49  0  0  0  0  0  0  0  0999 V2000
    0.5630   45.9400   52.4600 O   0  0  0  0  0  0  0  0  0  0  0  0
    1.9510   46.0980   52.5730 C   0  0  0  0  0  0  0  0  0  0  0  0
    2.6720   45.1080   51.6420 C   0  0  0  0  0  0  0  0  0  0  0  0
    4.1230   44.7790   52.0610 C   0  0  2  0  0  0  0  0  0  0  0  0
    5.1250   45.9410   51.7900 C   0  0  0  0  0  0  0  0  0  0  0  0
    6.0930   45.4170   50.8260 N   0  0  0  0  0  0  0  0  0  0  0  0
    7.2350   46.1700   50.3140 C   0  0  0  0  0  0  0  0  0  0  0  0
    8.3270   46.2760   51.3780 C   0  0  2  0  0  0  0  0  0  0  0  0
    8.7940   47.6540   51.8260 C   0  0  0  0  0  0  0  0  0  0  0  0
    9.2050   46.7940   53.0040 C   0  0  2  0  0  0  0  0  0  0  0  0
    9.4920   47.4210   54.3300 C   0  0  0  0  0  0  0  0  0  0  0  0
   10.4900   47.0370   55.1500 N   0  0  0  0  0  0  0  0  0  0  0  0
   10.4360   47.8840   56.1660 N   0  0  0  0  0  0  0  0  0  0  0  0
    9.4550   48.7460   55.9600 N   0  0  0  0  0  0  0  0  0  0  0  0
    8.8440   48.4970   54.8140 N   0  0  0  0  0  0  0  0  0  0  0  0
   10.2390   45.9110   52.3240 C   0  0  0  0  0  0  0  0  0  0  0  0
    9.5300   45.5640   51.1390 O   0  0  0  0  0  0  0  0  0  0  0  0
    7.9740   45.9310   52.8170 C   0  0  0  0  0  0  0  0  0  0  0  0
    5.8160   44.0440   50.5960 C   0  0  0  0  0  0  0  0  0  0  0  0
    6.5560   43.1490   49.8170 C   0  0  0  0  0  0  0  0  0  0  0  0
    6.1260   41.8150   49.7430 C   0  0  0  0  0  0  0  0  0  0  0  0
    4.9830   41.3970   50.4500 C   0  0  0  0  0  0  0  0  0  0  0  0
    4.2650   42.3130   51.2360 C   0  0  0  0  0  0  0  0  0  0  0  0
    4.7040   43.6380   51.2860 C   0  0  0  0  0  0  0  0  0  0  0  0
    0.3200   46.2160   51.5370 H   0  0  0  0  0  0  0  0  0  0  0  0
    2.2244   47.1261   52.2931 H   0  0  0  0  0  0  0  0  0  0  0  0
    2.2529   45.9009   53.6122 H   0  0  0  0  0  0  0  0  0  0  0  0
    2.0975   44.1701   51.6258 H   0  0  0  0  0  0  0  0  0  0  0  0
    2.7318   45.5911   50.6556 H   0  0  0  0  0  0  0  0  0  0  0  0
    4.0199   44.5602   53.1341 H   0  0  0  0  0  0  0  0  0  0  0  0
    4.5984   46.8105   51.3698 H   0  0  0  0  0  0  0  0  0  0  0  0
    5.6163   46.2756   52.7155 H   0  0  0  0  0  0  0  0  0  0  0  0
    7.6400   45.6564   49.4296 H   0  0  0  0  0  0  0  0  0  0  0  0
    6.9012   47.1830   50.0447 H   0  0  0  0  0  0  0  0  0  0  0  0
    9.6070   48.1118   51.2433 H   0  0  0  0  0  0  0  0  0  0  0  0
    8.1847   48.5690   51.8664 H   0  0  0  0  0  0  0  0  0  0  0  0
    9.2040   49.5220   56.6090 H   0  0  0  0  0  0  0  0  0  0  0  0
   11.1630   46.4639   52.0993 H   0  0  0  0  0  0  0  0  0  0  0  0
   10.5833   45.0558   52.9241 H   0  0  0  0  0  0  0  0  0  0  0  0
    8.0656   44.8737   53.1063 H   0  0  0  0  0  0  0  0  0  0  0  0
    6.9969   46.0737   53.3017 H   0  0  0  0  0  0  0  0  0  0  0  0
    7.4534   43.4824   49.2753 H   0  0  0  0  0  0  0  0  0  0  0  0
    6.6849   41.0929   49.1296 H   0  0  0  0  0  0  0  0  0  0  0  0
    4.6512   40.3501   50.3868 H   0  0  0  0  0  0  0  0  0  0  0  0
    3.3762   41.9939   51.8000 H   0  0  0  0  0  0  0  0  0  0  0  0
  1  2  1  0
  2  3  1  0
  3  4  1  0
  4  5  1  0
  5  6  1  0
  6  7  1  0
  8  7  1  6
  8  9  1  0
  9 10  1  0
 10 11  1  1
 11 12  1  0
 12 13  2  0
 13 14  1  0
 14 15  1  0
 10 16  1  0
 16 17  1  0
 10 18  1  0
  6 19  1  0
 19 20  2  0
 20 21  1  0
 21 22  2  0
 22 23  1  0
 23 24  2  0
 24  4  1  0
 17  8  1  0
 24 19  1  0
 18  8  1  0
 15 11  2  0
  1 25  1  0
  2 26  1  0
  2 27  1  0
  3 28  1  0
  3 29  1  0
  4 30  1  1
  5 31  1  0
  5 32  1  0
  7 33  1  0
  7 34  1  0
  9 35  1  0
  9 36  1  0
 14 37  1  0
 16 38  1  0
 16 39  1  0
 18 40  1  0
 18 41  1  0
 20 42  1  0
 21 43  1  0
 22 44  1  0
 23 45  1  0
M  END
>  <meeko>  (2) 
{"is_sidechain": [false], "free_energy": -9.525, "intermolecular_energy": -12.518, "internal_energy": 0.001}

$$$$
ligand_57_conformer_1_docked
     RDKit          3D

 45 49  0  0  0  0  0  0  0  0999 V2000
    9.0940   48.7310   55.6890 O   0  0  0  0  0  0  0  0  0  0  0  0
    9.4720   47.7750   54.7360 C   0  0  0  0  0  0  0  0  0  0  0  0
    8.2280   47.0590   54.1850 C   0  0  0  0  0  0  0  0  0  0  0  0
    7.9440   47.3300   52.6910 C   0  0  2  0  0  0  0  0  0  0  0  0
    6.4370   47.2130   52.3150 C   0  0  0  0  0  0  0  0  0  0  0  0
    6.3510   46.1190   51.3470 N   0  0  0  0  0  0  0  0  0  0  0  0
    5.1130   45.6840   50.7030 C   0  0  0  0  0  0  0  0  0  0  0  0
    4.1520   45.0930   51.7340 C   0  0  2  0  0  0  0  0  0  0  0  0
    4.6260   44.9090   53.1690 C   0  0  0  0  0  0  0  0  0  0  0  0
    3.1220   44.9380   53.3470 C   0  0  2  0  0  0  0  0  0  0  0  0
    2.5270   45.2180   54.6890 C   0  0  0  0  0  0  0  0  0  0  0  0
    1.4050   44.6370   55.1560 N   0  0  0  0  0  0  0  0  0  0  0  0
    1.2730   45.1030   56.3880 N   0  0  0  0  0  0  0  0  0  0  0  0
    2.2780   45.9200   56.6520 N   0  0  0  0  0  0  0  0  0  0  0  0
    3.0930   46.0120   55.6160 N   0  0  0  0  0  0  0  0  0  0  0  0
    2.7520   43.6780   52.5820 C   0  0  0  0  0  0  0  0  0  0  0  0
    3.5410   43.8560   51.4100 O   0  0  0  0  0  0  0  0  0  0  0  0
    3.0000   45.9550   52.2300 C   0  0  0  0  0  0  0  0  0  0  0  0
    7.6620   45.6660   51.0470 C   0  0  0  0  0  0  0  0  0  0  0  0
    8.0310   44.7020   50.1030 C   0  0  0  0  0  0  0  0  0  0  0  0
    9.3960   44.4180   49.9370 C   0  0  0  0  0  0  0  0  0  0  0  0
   10.3610   45.1040   50.6980 C   0  0  0  0  0  0  0  0  0  0  0  0
    9.9660   46.0770   51.6290 C   0  0  0  0  0  0  0  0  0  0  0  0
    8.6010   46.3360   51.7860 C   0  0  0  0  0  0  0  0  0  0  0  0
    8.1400   48.5560   55.9040 H   0  0  0  0  0  0  0  0  0  0  0  0
   10.0007   48.2735   53.9102 H   0  0  0  0  0  0  0  0  0  0  0  0
   10.1332   47.0350   55.2105 H   0  0  0  0  0  0  0  0  0  0  0  0
    8.3677   45.9760   54.3175 H   0  0  0  0  0  0  0  0  0  0  0  0
    7.3664   47.4524   54.7443 H   0  0  0  0  0  0  0  0  0  0  0  0
    8.3288   48.3516   52.5560 H   0  0  0  0  0  0  0  0  0  0  0  0
    5.8364   46.9829   53.2074 H   0  0  0  0  0  0  0  0  0  0  0  0
    6.0498   48.1542   51.8975 H   0  0  0  0  0  0  0  0  0  0  0  0
    4.6356   46.5472   50.2163 H   0  0  0  0  0  0  0  0  0  0  0  0
    5.3525   44.9122   49.9567 H   0  0  0  0  0  0  0  0  0  0  0  0
    5.1310   43.9601   53.4026 H   0  0  0  0  0  0  0  0  0  0  0  0
    5.3583   45.5351   53.6998 H   0  0  0  0  0  0  0  0  0  0  0  0
    2.4140   46.4180   57.5590 H   0  0  0  0  0  0  0  0  0  0  0  0
    3.0375   42.7688   53.1315 H   0  0  0  0  0  0  0  0  0  0  0  0
    1.6752   43.5481   52.3988 H   0  0  0  0  0  0  0  0  0  0  0  0
    2.0736   45.9266   51.6376 H   0  0  0  0  0  0  0  0  0  0  0  0
    3.0041   47.0494   52.3404 H   0  0  0  0  0  0  0  0  0  0  0  0
    7.2701   44.1790   49.5051 H   0  0  0  0  0  0  0  0  0  0  0  0
    9.7125   43.6563   49.2092 H   0  0  0  0  0  0  0  0  0  0  0  0
   11.4287   44.8767   50.5625 H   0  0  0  0  0  0  0  0  0  0  0  0
   10.7138   46.6238   52.2221 H   0  0  0  0  0  0  0  0  0  0  0  0
  1  2  1  0
  2  3  1  0
  3  4  1  0
  4  5  1  0
  5  6  1  0
  6  7  1  0
  8  7  1  6
  8  9  1  0
  9 10  1  0
 10 11  1  1
 11 12  1  0
 12 13  2  0
 13 14  1  0
 14 15  1  0
 10 16  1  0
 16 17  1  0
 10 18  1  0
  6 19  1  0
 19 20  2  0
 20 21  1  0
 21 22  2  0
 22 23  1  0
 23 24  2  0
 24  4  1  0
 17  8  1  0
 24 19  1  0
 18  8  1  0
 15 11  2  0
  1 25  1  0
  2 26  1  0
  2 27  1  0
  3 28  1  0
  3 29  1  0
  4 30  1  6
  5 31  1  0
  5 32  1  0
  7 33  1  0
  7 34  1  0
  9 35  1  0
  9 36  1  0
 14 37  1  0
 16 38  1  0
 16 39  1  0
 18 40  1  0
 18 41  1  0
 20 42  1  0
 21 43  1  0
 22 44  1  0
 23 45  1  0
M  END
>  <meeko>  (3) 
{"is_sidechain": [false], "free_energy": -8.532, "intermolecular_energy": -11.157, "internal_energy": -0.047}

$$$$
ligand_57_conformer_1_docked
     RDKit          3D

 45 49  0  0  0  0  0  0  0  0999 V2000
   10.6810   47.5350   56.3450 O   0  0  0  0  0  0  0  0  0  0  0  0
    9.7760   47.8750   55.3300 C   0  0  0  0  0  0  0  0  0  0  0  0
    9.8980   46.8850   54.1600 C   0  0  0  0  0  0  0  0  0  0  0  0
    9.2810   47.3840   52.8340 C   0  0  2  0  0  0  0  0  0  0  0  0
    7.8050   47.8580   52.9770 C   0  0  0  0  0  0  0  0  0  0  0  0
    7.0150   46.9690   52.1250 N   0  0  0  0  0  0  0  0  0  0  0  0
    5.5700   47.0770   51.9360 C   0  0  0  0  0  0  0  0  0  0  0  0
    4.8360   46.0870   52.8390 C   0  0  2  0  0  0  0  0  0  0  0  0
    3.3240   46.1930   52.9800 C   0  0  0  0  0  0  0  0  0  0  0  0
    3.5670   44.7530   53.3830 C   0  0  2  0  0  0  0  0  0  0  0  0
    2.4440   43.7670   53.3700 C   0  0  0  0  0  0  0  0  0  0  0  0
    1.4010   43.7970   54.2220 N   0  0  0  0  0  0  0  0  0  0  0  0
    0.6150   42.8070   53.8270 N   0  0  0  0  0  0  0  0  0  0  0  0
    1.1580   42.2160   52.7770 N   0  0  0  0  0  0  0  0  0  0  0  0
    2.3020   42.7940   52.4510 N   0  0  0  0  0  0  0  0  0  0  0  0
    4.3880   44.9770   54.6420 C   0  0  0  0  0  0  0  0  0  0  0  0
    5.3000   45.9650   54.1730 O   0  0  0  0  0  0  0  0  0  0  0  0
    4.6870   44.6470   52.3670 C   0  0  0  0  0  0  0  0  0  0  0  0
    7.8950   46.1020   51.4240 C   0  0  0  0  0  0  0  0  0  0  0  0
    7.5570   45.1650   50.4430 C   0  0  0  0  0  0  0  0  0  0  0  0
    8.5890   44.4220   49.8470 C   0  0  0  0  0  0  0  0  0  0  0  0
    9.9280   44.6340   50.2280 C   0  0  0  0  0  0  0  0  0  0  0  0
   10.2410   45.5900   51.2060 C   0  0  0  0  0  0  0  0  0  0  0  0
    9.1970   46.3100   51.7950 C   0  0  0  0  0  0  0  0  0  0  0  0
   11.5810   47.8110   56.0260 H   0  0  0  0  0  0  0  0  0  0  0  0
    8.7517   47.8415   55.7296 H   0  0  0  0  0  0  0  0  0  0  0  0
   10.0040   48.8888   54.9691 H   0  0  0  0  0  0  0  0  0  0  0  0
   10.9660   46.6850   53.9886 H   0  0  0  0  0  0  0  0  0  0  0  0
    9.3342   45.9860   54.4496 H   0  0  0  0  0  0  0  0  0  0  0  0
    9.9556   48.2048   52.5488 H   0  0  0  0  0  0  0  0  0  0  0  0
    7.4766   47.7767   54.0237 H   0  0  0  0  0  0  0  0  0  0  0  0
    7.6881   48.9109   52.6809 H   0  0  0  0  0  0  0  0  0  0  0  0
    5.2482   48.0994   52.1831 H   0  0  0  0  0  0  0  0  0  0  0  0
    5.3305   46.8466   50.8874 H   0  0  0  0  0  0  0  0  0  0  0  0
    2.9489   46.8669   53.7643 H   0  0  0  0  0  0  0  0  0  0  0  0
    2.6199   46.5460   52.2121 H   0  0  0  0  0  0  0  0  0  0  0  0
    0.7370   41.4090   52.2680 H   0  0  0  0  0  0  0  0  0  0  0  0
    3.7698   45.3532   55.4704 H   0  0  0  0  0  0  0  0  0  0  0  0
    4.8584   44.0721   55.0542 H   0  0  0  0  0  0  0  0  0  0  0  0
    5.5109   43.9608   52.6124 H   0  0  0  0  0  0  0  0  0  0  0  0
    4.5934   44.3077   51.3248 H   0  0  0  0  0  0  0  0  0  0  0  0
    6.5089   45.0135   50.1454 H   0  0  0  0  0  0  0  0  0  0  0  0
    8.3504   43.6712   49.0793 H   0  0  0  0  0  0  0  0  0  0  0  0
   10.7312   44.0481   49.7573 H   0  0  0  0  0  0  0  0  0  0  0  0
   11.2849   45.7692   51.5030 H   0  0  0  0  0  0  0  0  0  0  0  0
  1  2  1  0
  2  3  1  0
  3  4  1  0
  4  5  1  0
  5  6  1  0
  6  7  1  0
  8  7  1  6
  8  9  1  0
  9 10  1  0
 10 11  1  1
 11 12  1  0
 12 13  2  0
 13 14  1  0
 14 15  1  0
 10 16  1  0
 16 17  1  0
 10 18  1  0
  6 19  1  0
 19 20  2  0
 20 21  1  0
 21 22  2  0
 22 23  1  0
 23 24  2  0
 24  4  1  0
 17  8  1  0
 24 19  1  0
 18  8  1  0
 15 11  2  0
  1 25  1  0
  2 26  1  0
  2 27  1  0
  3 28  1  0
  3 29  1  0
  4 30  1  6
  5 31  1  0
  5 32  1  0
  7 33  1  0
  7 34  1  0
  9 35  1  0
  9 36  1  0
 14 37  1  0
 16 38  1  0
 16 39  1  0
 18 40  1  0
 18 41  1  0
 20 42  1  0
 21 43  1  0
 22 44  1  0
 23 45  1  0
M  END
>  <meeko>  (4) 
{"is_sidechain": [false], "free_energy": -8.498, "intermolecular_energy": -10.974, "internal_energy": -0.185}

$$$$
ligand_57_conformer_1_docked
     RDKit          3D

 45 49  0  0  0  0  0  0  0  0999 V2000
    3.3160   42.2520   52.6770 O   0  0  0  0  0  0  0  0  0  0  0  0
    3.1160   42.5790   51.3290 C   0  0  0  0  0  0  0  0  0  0  0  0
    1.6170   42.7820   51.0530 C   0  0  0  0  0  0  0  0  0  0  0  0
    1.0870   44.1910   51.4050 C   0  0  2  0  0  0  0  0  0  0  0  0
    2.1640   45.3080   51.2760 C   0  0  0  0  0  0  0  0  0  0  0  0
    2.3240   45.8650   52.6200 N   0  0  0  0  0  0  0  0  0  0  0  0
    3.2220   46.9680   52.9530 C   0  0  0  0  0  0  0  0  0  0  0  0
    4.6030   46.4380   53.3380 C   0  0  2  0  0  0  0  0  0  0  0  0
    5.8090   46.8330   52.4990 C   0  0  0  0  0  0  0  0  0  0  0  0
    6.4630   46.4500   53.8110 C   0  0  2  0  0  0  0  0  0  0  0  0
    7.8500   46.9120   54.1250 C   0  0  0  0  0  0  0  0  0  0  0  0
    8.1480   47.8330   55.0610 N   0  0  0  0  0  0  0  0  0  0  0  0
    9.4700   47.8940   55.0650 N   0  0  0  0  0  0  0  0  0  0  0  0
    9.9450   47.0380   54.1760 N   0  0  0  0  0  0  0  0  0  0  0  0
    8.9620   46.3940   53.5710 N   0  0  0  0  0  0  0  0  0  0  0  0
    6.1110   44.9720   53.8480 C   0  0  0  0  0  0  0  0  0  0  0  0
    4.7340   45.0340   53.4930 O   0  0  0  0  0  0  0  0  0  0  0  0
    5.2800   47.0100   54.5760 C   0  0  0  0  0  0  0  0  0  0  0  0
    1.3750   45.2590   53.4850 C   0  0  0  0  0  0  0  0  0  0  0  0
    1.1290   45.5720   54.8250 C   0  0  0  0  0  0  0  0  0  0  0  0
    0.1180   44.8690   55.5000 C   0  0  0  0  0  0  0  0  0  0  0  0
   -0.6320   43.8850   54.8290 C   0  0  0  0  0  0  0  0  0  0  0  0
   -0.3740   43.6000   53.4790 C   0  0  0  0  0  0  0  0  0  0  0  0
    0.6440   44.3030   52.8300 C   0  0  0  0  0  0  0  0  0  0  0  0
    4.2620   41.9590   52.7600 H   0  0  0  0  0  0  0  0  0  0  0  0
    3.6582   43.5070   51.0951 H   0  0  0  0  0  0  0  0  0  0  0  0
    3.4908   41.7586   50.6994 H   0  0  0  0  0  0  0  0  0  0  0  0
    1.4374   42.6046   49.9824 H   0  0  0  0  0  0  0  0  0  0  0  0
    1.0801   42.0740   51.7015 H   0  0  0  0  0  0  0  0  0  0  0  0
    0.2628   44.3240   50.6888 H   0  0  0  0  0  0  0  0  0  0  0  0
    3.1150   44.8840   50.9214 H   0  0  0  0  0  0  0  0  0  0  0  0
    1.8628   46.0790   50.5515 H   0  0  0  0  0  0  0  0  0  0  0  0
    3.3193   47.6312   52.0808 H   0  0  0  0  0  0  0  0  0  0  0  0
    2.8034   47.5216   53.8064 H   0  0  0  0  0  0  0  0  0  0  0  0
    6.0353   46.1954   51.6317 H   0  0  0  0  0  0  0  0  0  0  0  0
    5.9436   47.7791   51.9542 H   0  0  0  0  0  0  0  0  0  0  0  0
   10.9590   46.8860   53.9840 H   0  0  0  0  0  0  0  0  0  0  0  0
    6.6953   44.3953   53.1159 H   0  0  0  0  0  0  0  0  0  0  0  0
    6.3195   44.4711   54.8049 H   0  0  0  0  0  0  0  0  0  0  0  0
    5.0409   46.5275   55.5352 H   0  0  0  0  0  0  0  0  0  0  0  0
    5.1775   48.0350   54.9620 H   0  0  0  0  0  0  0  0  0  0  0  0
    1.7132   46.3501   55.3382 H   0  0  0  0  0  0  0  0  0  0  0  0
   -0.0887   45.0883   56.5579 H   0  0  0  0  0  0  0  0  0  0  0  0
   -1.4223   43.3379   55.3639 H   0  0  0  0  0  0  0  0  0  0  0  0
   -0.9609   42.8393   52.9434 H   0  0  0  0  0  0  0  0  0  0  0  0
  1  2  1  0
  2  3  1  0
  3  4  1  0
  4  5  1  0
  5  6  1  0
  6  7  1  0
  8  7  1  6
  8  9  1  0
  9 10  1  0
 10 11  1  1
 11 12  1  0
 12 13  2  0
 13 14  1  0
 14 15  1  0
 10 16  1  0
 16 17  1  0
 10 18  1  0
  6 19  1  0
 19 20  2  0
 20 21  1  0
 21 22  2  0
 22 23  1  0
 23 24  2  0
 24  4  1  0
 17  8  1  0
 24 19  1  0
 18  8  1  0
 15 11  2  0
  1 25  1  0
  2 26  1  0
  2 27  1  0
  3 28  1  0
  3 29  1  0
  4 30  1  6
  5 31  1  0
  5 32  1  0
  7 33  1  0
  7 34  1  0
  9 35  1  0
  9 36  1  0
 14 37  1  0
 16 38  1  0
 16 39  1  0
 18 40  1  0
 18 41  1  0
 20 42  1  0
 21 43  1  0
 22 44  1  0
 23 45  1  0
M  END
>  <meeko>  (5) 
{"is_sidechain": [false], "free_energy": -8.468, "intermolecular_energy": -10.549, "internal_energy": -0.571}

$$$$
