MODEL 1
REMARK VINA RESULT:    -9.008      0.000      0.000
REMARK INTER + INTRA:         -13.222
REMARK INTER:                 -12.432
REMARK INTRA:                  -0.790
REMARK UNBOUND:                -0.790
REMARK SMILES O=C(Nc1cccc(C(=O)Nc2ccc(Cl)cn2)c1)N[C@H](CO)c1ccc(F)c(Cl)c1
REMARK SMILES IDX 1 1 2 2 3 3 20 4 4 7 5 8 19 9 6 10 8 11 7 12 9 13 10 14
REMARK SMILES IDX 11 15 12 17 13 18 18 19 14 20 17 21 15 22 16 23 21 24 22 25
REMARK SMILES IDX 23 26 24 28 25 29 31 30 26 31 29 32 27 33 30 34 28 35
REMARK H PARENT 3 5 20 6 11 16 23 27
ROOT
ATOM      1  O   UNL     1       2.602  44.510  51.207  1.00  0.00    -0.248 OA
ATOM      2  C   UNL     1       3.261  43.778  51.994  1.00  0.00     0.319 C 
ATOM      3  N   UNL     1       2.593  43.028  53.019  1.00  0.00    -0.308 N 
ATOM      4  N   UNL     1       4.683  43.661  51.844  1.00  0.00    -0.329 N 
ATOM      5  H   UNL     1       3.104  42.222  53.443  1.00  0.00     0.171 HD
ATOM      6  H   UNL     1       5.194  43.007  52.480  1.00  0.00     0.166 HD
ENDROOT
BRANCH   3   7
ATOM      7  C   UNL     1       1.231  43.255  53.425  1.00  0.00     0.043 A 
ATOM      8  C   UNL     1       0.152  42.870  52.612  1.00  0.00     0.026 A 
ATOM      9  C   UNL     1       0.976  43.938  54.625  1.00  0.00     0.040 A 
ATOM     10  C   UNL     1      -1.160  43.135  53.011  1.00  0.00     0.003 A 
ATOM     11  C   UNL     1      -0.343  44.197  55.041  1.00  0.00     0.042 A 
ATOM     12  C   UNL     1      -1.408  43.792  54.217  1.00  0.00     0.014 A 
BRANCH  11  13
ATOM     13  C   UNL     1      -0.617  44.911  56.312  1.00  0.00     0.256 C 
ATOM     14  O   UNL     1      -1.299  44.338  57.206  1.00  0.00    -0.269 OA
ATOM     15  N   UNL     1      -0.085  46.227  56.550  1.00  0.00    -0.307 N 
ATOM     16  H   UNL     1       0.718  46.549  55.965  1.00  0.00     0.171 HD
BRANCH  15  17
ATOM     17  C   UNL     1      -0.563  47.108  57.581  1.00  0.00     0.132 A 
ATOM     18  C   UNL     1      -1.762  47.812  57.398  1.00  0.00     0.049 A 
ATOM     19  N   UNL     1       0.126  47.253  58.749  1.00  0.00    -0.238 NA
ATOM     20  C   UNL     1      -2.226  48.655  58.410  1.00  0.00     0.026 A 
ATOM     21  C   UNL     1      -0.309  48.069  59.746  1.00  0.00     0.134 A 
ATOM     22  C   UNL     1      -1.497  48.788  59.592  1.00  0.00     0.059 A 
ATOM     23  Cl  UNL     1      -2.066  49.843  60.873  1.00  0.00    -0.083 Cl
ENDBRANCH  15  17
ENDBRANCH  11  13
ENDBRANCH   3   7
BRANCH   4  24
ATOM     24  C   UNL     1       5.427  44.430  50.839  1.00  0.00     0.139 C 
BRANCH  24  25
ATOM     25  C   UNL     1       6.248  43.502  49.930  1.00  0.00     0.185 C 
BRANCH  25  26
ATOM     26  O   UNL     1       5.764  42.188  49.993  1.00  0.00    -0.394 OA
ATOM     27  H   UNL     1       4.901  42.237  50.480  1.00  0.00     0.210 HD
ENDBRANCH  25  26
ENDBRANCH  24  25
BRANCH  24  28
ATOM     28  C   UNL     1       6.320  45.464  51.498  1.00  0.00    -0.022 A 
ATOM     29  C   UNL     1       5.756  46.456  52.319  1.00  0.00     0.009 A 
ATOM     30  C   UNL     1       7.709  45.477  51.266  1.00  0.00     0.029 A 
ATOM     31  C   UNL     1       6.567  47.426  52.915  1.00  0.00     0.041 A 
ATOM     32  C   UNL     1       8.519  46.449  51.865  1.00  0.00     0.077 A 
ATOM     33  C   UNL     1       7.947  47.422  52.693  1.00  0.00     0.141 A 
ATOM     34  Cl  UNL     1      10.249  46.438  51.574  1.00  0.00    -0.081 Cl
ATOM     35  F   UNL     1       8.723  48.368  53.278  1.00  0.00    -0.205 F 
ENDBRANCH  24  28
ENDBRANCH   4  24
TORSDOF 7
ENDMDL
MODEL 2
REMARK VINA RESULT:    -8.368      1.536      2.010
REMARK INTER + INTRA:         -12.338
REMARK INTER:                 -11.480
REMARK INTRA:                  -0.857
REMARK UNBOUND:                -0.790
REMARK SMILES O=C(Nc1cccc(C(=O)Nc2ccc(Cl)cn2)c1)N[C@H](CO)c1ccc(F)c(Cl)c1
REMARK SMILES IDX 1 1 2 2 3 3 20 4 4 7 5 8 19 9 6 10 8 11 7 12 9 13 10 14
REMARK SMILES IDX 11 15 12 17 13 18 18 19 14 20 17 21 15 22 16 23 21 24 22 25
REMARK SMILES IDX 23 26 24 28 25 29 31 30 26 31 29 32 27 33 30 34 28 35
REMARK H PARENT 3 5 20 6 11 16 23 27
ROOT
ATOM      1  O   UNL     1       2.420  45.615  52.566  1.00  0.00    -0.248 OA
ATOM      2  C   UNL     1       3.124  45.025  53.431  1.00  0.00     0.319 C 
ATOM      3  N   UNL     1       2.507  44.191  54.422  1.00  0.00    -0.308 N 
ATOM      4  N   UNL     1       4.552  45.155  53.403  1.00  0.00    -0.329 N 
ATOM      5  H   UNL     1       3.111  43.495  54.915  1.00  0.00     0.171 HD
ATOM      6  H   UNL     1       5.110  44.614  54.102  1.00  0.00     0.166 HD
ENDROOT
BRANCH   3   7
ATOM      7  C   UNL     1       1.097  44.185  54.705  1.00  0.00     0.043 A 
ATOM      8  C   UNL     1       0.192  43.469  53.903  1.00  0.00     0.026 A 
ATOM      9  C   UNL     1       0.605  44.965  55.764  1.00  0.00     0.040 A 
ATOM     10  C   UNL     1      -1.176  43.508  54.176  1.00  0.00     0.003 A 
ATOM     11  C   UNL     1      -0.772  45.000  56.055  1.00  0.00     0.042 A 
ATOM     12  C   UNL     1      -1.657  44.267  55.244  1.00  0.00     0.014 A 
BRANCH  11  13
ATOM     13  C   UNL     1      -1.295  45.817  57.177  1.00  0.00     0.256 C 
ATOM     14  O   UNL     1      -2.198  45.339  57.918  1.00  0.00    -0.269 OA
ATOM     15  N   UNL     1      -0.762  47.125  57.450  1.00  0.00    -0.307 N 
ATOM     16  H   UNL     1       0.172  47.372  57.052  1.00  0.00     0.171 HD
BRANCH  15  17
ATOM     17  C   UNL     1      -1.418  48.099  58.280  1.00  0.00     0.132 A 
ATOM     18  C   UNL     1      -0.940  48.351  59.574  1.00  0.00     0.049 A 
ATOM     19  N   UNL     1      -2.491  48.801  57.815  1.00  0.00    -0.238 NA
ATOM     20  C   UNL     1      -1.573  49.309  60.367  1.00  0.00     0.026 A 
ATOM     21  C   UNL     1      -3.123  49.738  58.573  1.00  0.00     0.134 A 
ATOM     22  C   UNL     1      -2.674  50.007  59.868  1.00  0.00     0.059 A 
ATOM     23  Cl  UNL     1      -3.481  51.215  60.852  1.00  0.00    -0.083 Cl
ENDBRANCH  15  17
ENDBRANCH  11  13
ENDBRANCH   3   7
BRANCH   4  24
ATOM     24  C   UNL     1       5.237  46.022  52.437  1.00  0.00     0.139 C 
BRANCH  24  25
ATOM     25  C   UNL     1       5.257  45.385  51.039  1.00  0.00     0.185 C 
BRANCH  25  26
ATOM     26  O   UNL     1       4.343  46.022  50.188  1.00  0.00    -0.394 OA
ATOM     27  H   UNL     1       3.506  46.125  50.713  1.00  0.00     0.210 HD
ENDBRANCH  25  26
ENDBRANCH  24  25
BRANCH  24  28
ATOM     28  C   UNL     1       6.646  46.345  52.900  1.00  0.00    -0.022 A 
ATOM     29  C   UNL     1       6.857  46.880  54.182  1.00  0.00     0.009 A 
ATOM     30  C   UNL     1       7.751  46.158  52.047  1.00  0.00     0.029 A 
ATOM     31  C   UNL     1       8.148  47.199  54.612  1.00  0.00     0.041 A 
ATOM     32  C   UNL     1       9.042  46.478  52.480  1.00  0.00     0.077 A 
ATOM     33  C   UNL     1       9.241  46.996  53.765  1.00  0.00     0.141 A 
ATOM     34  Cl  UNL     1      10.406  46.225  51.405  1.00  0.00    -0.081 Cl
ATOM     35  F   UNL     1      10.489  47.308  54.194  1.00  0.00    -0.205 F 
ENDBRANCH  24  28
ENDBRANCH   4  24
TORSDOF 7
ENDMDL
MODEL 3
REMARK VINA RESULT:    -7.757      6.417     11.343
REMARK INTER + INTRA:         -11.494
REMARK INTER:                 -10.722
REMARK INTRA:                  -0.772
REMARK UNBOUND:                -0.790
REMARK SMILES O=C(Nc1cccc(C(=O)Nc2ccc(Cl)cn2)c1)N[C@H](CO)c1ccc(F)c(Cl)c1
REMARK SMILES IDX 1 1 2 2 3 3 20 4 4 7 5 8 19 9 6 10 8 11 7 12 9 13 10 14
REMARK SMILES IDX 11 15 12 17 13 18 18 19 14 20 17 21 15 22 16 23 21 24 22 25
REMARK SMILES IDX 23 26 24 28 25 29 31 30 26 31 29 32 27 33 30 34 28 35
REMARK H PARENT 3 5 20 6 11 16 23 27
ROOT
ATOM      1  O   UNL     1       3.535  44.256  51.736  1.00  0.00    -0.248 OA
ATOM      2  C   UNL     1       3.183  43.215  52.355  1.00  0.00     0.319 C 
ATOM      3  N   UNL     1       3.649  41.926  51.931  1.00  0.00    -0.308 N 
ATOM      4  N   UNL     1       2.344  43.320  53.514  1.00  0.00    -0.329 N 
ATOM      5  H   UNL     1       3.597  41.141  52.619  1.00  0.00     0.171 HD
ATOM      6  H   UNL     1       2.112  42.444  54.036  1.00  0.00     0.166 HD
ENDROOT
BRANCH   3   7
ATOM      7  C   UNL     1       4.273  41.674  50.660  1.00  0.00     0.043 A 
ATOM      8  C   UNL     1       5.574  42.124  50.381  1.00  0.00     0.026 A 
ATOM      9  C   UNL     1       3.542  41.023  49.653  1.00  0.00     0.040 A 
ATOM     10  C   UNL     1       6.144  41.899  49.127  1.00  0.00     0.003 A 
ATOM     11  C   UNL     1       4.113  40.779  48.390  1.00  0.00     0.042 A 
ATOM     12  C   UNL     1       5.421  41.230  48.137  1.00  0.00     0.014 A 
BRANCH  11  13
ATOM     13  C   UNL     1       3.347  40.086  47.326  1.00  0.00     0.256 C 
ATOM     14  O   UNL     1       2.488  40.733  46.665  1.00  0.00    -0.269 OA
ATOM     15  N   UNL     1       3.598  38.704  47.016  1.00  0.00    -0.307 N 
ATOM     16  H   UNL     1       4.501  38.282  47.330  1.00  0.00     0.171 HD
BRANCH  15  17
ATOM     17  C   UNL     1       2.699  37.879  46.255  1.00  0.00     0.132 A 
ATOM     18  C   UNL     1       1.761  37.072  46.917  1.00  0.00     0.049 A 
ATOM     19  N   UNL     1       2.731  37.886  44.892  1.00  0.00    -0.238 NA
ATOM     20  C   UNL     1       0.883  36.286  46.170  1.00  0.00     0.026 A 
ATOM     21  C   UNL     1       1.885  37.126  44.146  1.00  0.00     0.134 A 
ATOM     22  C   UNL     1       0.943  36.308  44.775  1.00  0.00     0.059 A 
ATOM     23  Cl  UNL     1      -0.155  35.326  43.823  1.00  0.00    -0.083 Cl
ENDBRANCH  15  17
ENDBRANCH  11  13
ENDBRANCH   3   7
BRANCH   4  24
ATOM     24  C   UNL     1       1.807  44.606  53.974  1.00  0.00     0.139 C 
BRANCH  24  25
ATOM     25  C   UNL     1       2.179  44.866  55.443  1.00  0.00     0.185 C 
BRANCH  25  26
ATOM     26  O   UNL     1       3.566  44.783  55.627  1.00  0.00    -0.394 OA
ATOM     27  H   UNL     1       3.751  45.194  56.511  1.00  0.00     0.210 HD
ENDBRANCH  25  26
ENDBRANCH  24  25
BRANCH  24  28
ATOM     28  C   UNL     1       0.303  44.667  53.783  1.00  0.00    -0.022 A 
ATOM     29  C   UNL     1      -0.551  44.505  54.887  1.00  0.00     0.009 A 
ATOM     30  C   UNL     1      -0.259  44.840  52.504  1.00  0.00     0.029 A 
ATOM     31  C   UNL     1      -1.938  44.539  54.720  1.00  0.00     0.041 A 
ATOM     32  C   UNL     1      -1.649  44.875  52.339  1.00  0.00     0.077 A 
ATOM     33  C   UNL     1      -2.488  44.728  53.450  1.00  0.00     0.141 A 
ATOM     34  Cl  UNL     1      -2.328  45.105  50.738  1.00  0.00    -0.081 Cl
ATOM     35  F   UNL     1      -3.836  44.761  53.300  1.00  0.00    -0.205 F 
ENDBRANCH  24  28
ENDBRANCH   4  24
TORSDOF 7
ENDMDL
MODEL 4
REMARK VINA RESULT:    -7.667      5.351      7.780
REMARK INTER + INTRA:         -11.371
REMARK INTER:                 -10.660
REMARK INTRA:                  -0.711
REMARK UNBOUND:                -0.790
REMARK SMILES O=C(Nc1cccc(C(=O)Nc2ccc(Cl)cn2)c1)N[C@H](CO)c1ccc(F)c(Cl)c1
REMARK SMILES IDX 1 1 2 2 3 3 20 4 4 7 5 8 19 9 6 10 8 11 7 12 9 13 10 14
REMARK SMILES IDX 11 15 12 17 13 18 18 19 14 20 17 21 15 22 16 23 21 24 22 25
REMARK SMILES IDX 23 26 24 28 25 29 31 30 26 31 29 32 27 33 30 34 28 35
REMARK H PARENT 3 5 20 6 11 16 23 27
ROOT
ATOM      1  O   UNL     1       1.584  43.546  53.650  1.00  0.00    -0.248 OA
ATOM      2  C   UNL     1       1.608  44.801  53.530  1.00  0.00     0.319 C 
ATOM      3  N   UNL     1       0.404  45.525  53.236  1.00  0.00    -0.308 N 
ATOM      4  N   UNL     1       2.835  45.517  53.725  1.00  0.00    -0.329 N 
ATOM      5  H   UNL     1       0.392  46.549  53.440  1.00  0.00     0.171 HD
ATOM      6  H   UNL     1       2.813  46.560  53.668  1.00  0.00     0.166 HD
ENDROOT
BRANCH   3   7
ATOM      7  C   UNL     1      -0.813  44.911  52.776  1.00  0.00     0.043 A 
ATOM      8  C   UNL     1      -1.748  44.375  53.677  1.00  0.00     0.026 A 
ATOM      9  C   UNL     1      -1.039  44.785  51.396  1.00  0.00     0.040 A 
ATOM     10  C   UNL     1      -2.904  43.751  53.204  1.00  0.00     0.003 A 
ATOM     11  C   UNL     1      -2.208  44.170  50.911  1.00  0.00     0.042 A 
ATOM     12  C   UNL     1      -3.135  43.649  51.831  1.00  0.00     0.014 A 
BRANCH  11  13
ATOM     13  C   UNL     1      -2.455  44.040  49.454  1.00  0.00     0.256 C 
ATOM     14  O   UNL     1      -2.054  43.006  48.851  1.00  0.00    -0.269 OA
ATOM     15  N   UNL     1      -3.175  45.056  48.733  1.00  0.00    -0.307 N 
ATOM     16  H   UNL     1      -3.765  45.725  49.277  1.00  0.00     0.171 HD
BRANCH  15  17
ATOM     17  C   UNL     1      -3.169  45.177  47.300  1.00  0.00     0.132 A 
ATOM     18  C   UNL     1      -2.568  46.290  46.695  1.00  0.00     0.049 A 
ATOM     19  N   UNL     1      -3.722  44.207  46.517  1.00  0.00    -0.238 NA
ATOM     20  C   UNL     1      -2.554  46.392  45.303  1.00  0.00     0.026 A 
ATOM     21  C   UNL     1      -3.718  44.288  45.159  1.00  0.00     0.134 A 
ATOM     22  C   UNL     1      -3.133  45.388  44.526  1.00  0.00     0.059 A 
ATOM     23  Cl  UNL     1      -3.123  45.500  42.776  1.00  0.00    -0.083 Cl
ENDBRANCH  15  17
ENDBRANCH  11  13
ENDBRANCH   3   7
BRANCH   4  24
ATOM     24  C   UNL     1       4.105  44.829  53.990  1.00  0.00     0.139 C 
BRANCH  24  25
ATOM     25  C   UNL     1       4.726  45.307  55.313  1.00  0.00     0.185 C 
BRANCH  25  26
ATOM     26  O   UNL     1       3.789  46.022  56.073  1.00  0.00    -0.394 OA
ATOM     27  H   UNL     1       3.688  45.522  56.924  1.00  0.00     0.210 HD
ENDBRANCH  25  26
ENDBRANCH  24  25
BRANCH  24  28
ATOM     28  C   UNL     1       5.077  45.020  52.841  1.00  0.00    -0.022 A 
ATOM     29  C   UNL     1       5.004  44.182  51.715  1.00  0.00     0.009 A 
ATOM     30  C   UNL     1       6.089  45.998  52.901  1.00  0.00     0.029 A 
ATOM     31  C   UNL     1       5.906  44.336  50.659  1.00  0.00     0.041 A 
ATOM     32  C   UNL     1       6.991  46.150  51.842  1.00  0.00     0.077 A 
ATOM     33  C   UNL     1       6.897  45.319  50.719  1.00  0.00     0.141 A 
ATOM     34  Cl  UNL     1       8.235  47.384  51.931  1.00  0.00    -0.081 Cl
ATOM     35  F   UNL     1       7.767  45.459  49.687  1.00  0.00    -0.205 F 
ENDBRANCH  24  28
ENDBRANCH   4  24
TORSDOF 7
ENDMDL
MODEL 5
REMARK VINA RESULT:    -7.466      2.972      9.378
REMARK INTER + INTRA:         -11.094
REMARK INTER:                 -10.210
REMARK INTRA:                  -0.883
REMARK UNBOUND:                -0.790
REMARK SMILES O=C(Nc1cccc(C(=O)Nc2ccc(Cl)cn2)c1)N[C@H](CO)c1ccc(F)c(Cl)c1
REMARK SMILES IDX 1 1 2 2 3 3 20 4 4 7 5 8 19 9 6 10 8 11 7 12 9 13 10 14
REMARK SMILES IDX 11 15 12 17 13 18 18 19 14 20 17 21 15 22 16 23 21 24 22 25
REMARK SMILES IDX 23 26 24 28 25 29 31 30 26 31 29 32 27 33 30 34 28 35
REMARK H PARENT 3 5 20 6 11 16 23 27
ROOT
ATOM      1  O   UNL     1      -0.229  44.105  55.476  1.00  0.00    -0.248 OA
ATOM      2  C   UNL     1      -0.710  45.131  54.920  1.00  0.00     0.319 C 
ATOM      3  N   UNL     1      -0.575  45.319  53.504  1.00  0.00    -0.308 N 
ATOM      4  N   UNL     1      -1.429  46.097  55.698  1.00  0.00    -0.329 N 
ATOM      5  H   UNL     1      -1.223  45.994  53.040  1.00  0.00     0.171 HD
ATOM      6  H   UNL     1      -1.859  46.910  55.201  1.00  0.00     0.166 HD
ENDROOT
BRANCH   3   7
ATOM      7  C   UNL     1       0.326  44.565  52.674  1.00  0.00     0.043 A 
ATOM      8  C   UNL     1      -0.133  43.520  51.856  1.00  0.00     0.026 A 
ATOM      9  C   UNL     1       1.703  44.834  52.733  1.00  0.00     0.040 A 
ATOM     10  C   UNL     1       0.766  42.779  51.087  1.00  0.00     0.003 A 
ATOM     11  C   UNL     1       2.616  44.102  51.951  1.00  0.00     0.042 A 
ATOM     12  C   UNL     1       2.131  43.066  51.132  1.00  0.00     0.014 A 
BRANCH  11  13
ATOM     13  C   UNL     1       4.070  44.387  52.005  1.00  0.00     0.256 C 
ATOM     14  O   UNL     1       4.889  43.432  51.907  1.00  0.00    -0.269 OA
ATOM     15  N   UNL     1       4.554  45.736  52.130  1.00  0.00    -0.307 N 
ATOM     16  H   UNL     1       3.906  46.519  51.891  1.00  0.00     0.171 HD
BRANCH  15  17
ATOM     17  C   UNL     1       5.897  46.071  52.519  1.00  0.00     0.132 A 
ATOM     18  C   UNL     1       6.918  46.098  51.558  1.00  0.00     0.049 A 
ATOM     19  N   UNL     1       6.190  46.388  53.813  1.00  0.00    -0.238 NA
ATOM     20  C   UNL     1       8.216  46.439  51.942  1.00  0.00     0.026 A 
ATOM     21  C   UNL     1       7.448  46.722  54.208  1.00  0.00     0.134 A 
ATOM     22  C   UNL     1       8.487  46.752  53.275  1.00  0.00     0.059 A 
ATOM     23  Cl  UNL     1      10.113  47.183  53.773  1.00  0.00    -0.083 Cl
ENDBRANCH  15  17
ENDBRANCH  11  13
ENDBRANCH   3   7
BRANCH   4  24
ATOM     24  C   UNL     1      -1.569  45.978  57.155  1.00  0.00     0.139 C 
BRANCH  24  25
ATOM     25  C   UNL     1      -2.761  45.081  57.524  1.00  0.00     0.185 C 
BRANCH  25  26
ATOM     26  O   UNL     1      -2.329  43.787  57.846  1.00  0.00    -0.394 OA
ATOM     27  H   UNL     1      -2.702  43.190  57.145  1.00  0.00     0.210 HD
ENDBRANCH  25  26
ENDBRANCH  24  25
BRANCH  24  28
ATOM     28  C   UNL     1      -1.704  47.343  57.801  1.00  0.00    -0.022 A 
ATOM     29  C   UNL     1      -0.896  47.681  58.900  1.00  0.00     0.009 A 
ATOM     30  C   UNL     1      -2.662  48.270  57.347  1.00  0.00     0.029 A 
ATOM     31  C   UNL     1      -1.025  48.929  59.517  1.00  0.00     0.041 A 
ATOM     32  C   UNL     1      -2.789  49.519  57.965  1.00  0.00     0.077 A 
ATOM     33  C   UNL     1      -1.967  49.849  59.049  1.00  0.00     0.141 A 
ATOM     34  Cl  UNL     1      -3.980  50.664  57.374  1.00  0.00    -0.081 Cl
ATOM     35  F   UNL     1      -2.083  51.058  59.655  1.00  0.00    -0.205 F 
ENDBRANCH  24  28
ENDBRANCH   4  24
TORSDOF 7
ENDMDL
