ligand_83_conformer_1_docked
     RDKit          3D

 45 48  0  0  0  0  0  0  0  0999 V2000
    4.7600   47.0190   54.5780 C   0  0  0  0  0  0  0  0  0  0  0  0
    4.9830   46.4780   53.1590 C   0  0  2  0  0  0  0  0  0  0  0  0
    5.0270   44.9370   53.1850 C   0  0  0  0  0  0  0  0  0  0  0  0
    4.9590   44.3790   51.8310 N   0  0  0  0  0  0  0  0  0  0  0  0
    4.0790   43.2770   51.5370 C   0  0  0  0  0  0  0  0  0  0  0  0
    4.5490   42.2170   51.0460 O   0  0  0  0  0  0  0  0  0  0  0  0
    2.6330   43.3540   51.8130 C   0  0  0  0  0  0  0  0  0  0  0  0
    1.7510   44.3150   51.2710 C   0  0  0  0  0  0  0  0  0  0  0  0
    0.5640   43.9940   51.8720 C   0  0  0  0  0  0  0  0  0  0  0  0
   -0.6670   44.4280   51.8830 O   0  0  0  0  0  0  0  0  0  0  0  0
   -1.3060   43.6330   52.7390 C   0  0  0  0  0  0  0  0  0  0  0  0
   -3.1580   43.8040   53.1590 Br  0  0  0  0  0  0  0  0  0  0  0  0
   -0.4460   42.6630   53.2900 C   0  0  0  0  0  0  0  0  0  0  0  0
    0.7350   42.9690   52.6730 C   0  0  0  0  0  0  0  0  0  0  0  0
    1.9960   42.5260   52.6930 N   0  0  0  0  0  0  0  0  0  0  0  0
    5.5380   45.1600   50.7340 C   0  0  0  0  0  0  0  0  0  0  0  0
    7.0370   45.4090   50.9450 C   0  0  0  0  0  0  0  0  0  0  0  0
    7.3060   46.1190   52.2250 N   0  0  0  0  0  0  0  0  0  0  0  0
    8.6330   46.7770   52.1560 C   0  0  0  0  0  0  0  0  0  0  0  0
    9.7190   46.0150   52.9250 C   0  0  0  0  0  0  0  0  0  0  0  0
    9.8950   47.1920   53.8680 C   0  0  0  0  0  0  0  0  0  0  0  0
    8.7960   47.9440   53.1370 C   0  0  0  0  0  0  0  0  0  0  0  0
    6.2360   47.1190   52.4970 C   0  0  0  0  0  0  0  0  0  0  0  0
    5.0721   46.2618   55.3123 H   0  0  0  0  0  0  0  0  0  0  0  0
    5.3544   47.9337   54.7193 H   0  0  0  0  0  0  0  0  0  0  0  0
    3.6937   47.2492   54.7193 H   0  0  0  0  0  0  0  0  0  0  0  0
    4.1335   46.7676   52.5230 H   0  0  0  0  0  0  0  0  0  0  0  0
    5.9653   44.6133   53.6592 H   0  0  0  0  0  0  0  0  0  0  0  0
    4.1581   44.5745   53.7538 H   0  0  0  0  0  0  0  0  0  0  0  0
    1.9640   45.1174   50.5493 H   0  0  0  0  0  0  0  0  0  0  0  0
   -0.6658   41.8711   54.0212 H   0  0  0  0  0  0  0  0  0  0  0  0
    2.3940   41.7420   53.2550 H   0  0  0  0  0  0  0  0  0  0  0  0
    5.3970   44.6102   49.7917 H   0  0  0  0  0  0  0  0  0  0  0  0
    5.0295   46.1349   50.7012 H   0  0  0  0  0  0  0  0  0  0  0  0
    7.5600   44.4414   50.9582 H   0  0  0  0  0  0  0  0  0  0  0  0
    7.3970   46.0427   50.1211 H   0  0  0  0  0  0  0  0  0  0  0  0
    8.7065   46.9410   51.0708 H   0  0  0  0  0  0  0  0  0  0  0  0
    9.3598   45.0985   53.4159 H   0  0  0  0  0  0  0  0  0  0  0  0
   10.5866   45.6006   52.3907 H   0  0  0  0  0  0  0  0  0  0  0  0
    9.6610   46.9644   54.9185 H   0  0  0  0  0  0  0  0  0  0  0  0
   10.8853   47.6504   54.0066 H   0  0  0  0  0  0  0  0  0  0  0  0
    7.9043   48.1406   53.7504 H   0  0  0  0  0  0  0  0  0  0  0  0
    8.9787   48.9612   52.7603 H   0  0  0  0  0  0  0  0  0  0  0  0
    6.6362   47.8908   53.1709 H   0  0  0  0  0  0  0  0  0  0  0  0
    5.9246   47.5489   51.5336 H   0  0  0  0  0  0  0  0  0  0  0  0
  1  2  1  0
  2  3  1  0
  3  4  1  0
  4  5  1  0
  5  6  2  0
  5  7  1  0
  7  8  2  0
  8  9  1  0
  9 10  1  0
 10 11  1  0
 11 12  1  0
 11 13  2  0
 13 14  1  0
 14 15  1  0
  4 16  1  0
 16 17  1  0
 17 18  1  0
 18 19  1  0
 19 20  1  0
 20 21  1  0
 21 22  1  0
 18 23  1  0
 23  2  1  0
 15  7  1  0
 22 19  1  0
 14  9  2  0
  1 24  1  0
  1 25  1  0
  1 26  1  0
  2 27  1  6
  3 28  1  0
  3 29  1  0
  8 30  1  0
 13 31  1  0
 15 32  1  0
 16 33  1  0
 16 34  1  0
 17 35  1  0
 17 36  1  0
 19 37  1  0
 20 38  1  0
 20 39  1  0
 21 40  1  0
 21 41  1  0
 22 42  1  0
 22 43  1  0
 23 44  1  0
 23 45  1  0
M  END
>  <meeko>  (1) 
{"is_sidechain": [false], "free_energy": -6.54, "intermolecular_energy": -9.981, "internal_energy": -0.079}

$$$$
ligand_83_conformer_1_docked
     RDKit          3D

 45 48  0  0  0  0  0  0  0  0999 V2000
    5.5840   44.1330   50.7100 C   0  0  0  0  0  0  0  0  0  0  0  0
    5.7840   45.1220   51.8670 C   0  0  2  0  0  0  0  0  0  0  0  0
    4.5200   45.9850   52.0440 C   0  0  0  0  0  0  0  0  0  0  0  0
    4.2690   46.2790   53.4600 N   0  0  0  0  0  0  0  0  0  0  0  0
    3.3850   45.4460   54.2330 C   0  0  0  0  0  0  0  0  0  0  0  0
    3.6020   45.2790   55.4630 O   0  0  0  0  0  0  0  0  0  0  0  0
    2.2140   44.7920   53.6230 C   0  0  0  0  0  0  0  0  0  0  0  0
    1.1950   45.4540   52.9030 C   0  0  0  0  0  0  0  0  0  0  0  0
    0.3340   44.4310   52.6070 C   0  0  0  0  0  0  0  0  0  0  0  0
   -0.8070   44.2700   51.9960 O   0  0  0  0  0  0  0  0  0  0  0  0
   -1.0800   42.9710   52.1100 C   0  0  0  0  0  0  0  0  0  0  0  0
   -2.6470   42.1540   51.3960 Br  0  0  0  0  0  0  0  0  0  0  0  0
   -0.0740   42.2890   52.8210 C   0  0  0  0  0  0  0  0  0  0  0  0
    0.7970   43.3060   53.0990 C   0  0  0  0  0  0  0  0  0  0  0  0
    1.9540   43.4560   53.7500 N   0  0  0  0  0  0  0  0  0  0  0  0
    5.1730   47.2100   54.1400 C   0  0  0  0  0  0  0  0  0  0  0  0
    6.6440   46.8430   53.9090 C   0  0  0  0  0  0  0  0  0  0  0  0
    7.0860   47.1670   52.5260 N   0  0  0  0  0  0  0  0  0  0  0  0
    8.4390   47.7740   52.5680 C   0  0  0  0  0  0  0  0  0  0  0  0
    9.5310   46.8360   52.0410 C   0  0  0  0  0  0  0  0  0  0  0  0
   10.1930   46.8190   53.4070 C   0  0  0  0  0  0  0  0  0  0  0  0
    9.0970   47.7180   53.9520 C   0  0  0  0  0  0  0  0  0  0  0  0
    7.0850   45.9400   51.6810 C   0  0  0  0  0  0  0  0  0  0  0  0
    5.3813   43.1307   51.1153 H   0  0  0  0  0  0  0  0  0  0  0  0
    4.7334   44.4579   50.0928 H   0  0  0  0  0  0  0  0  0  0  0  0
    6.4940   44.1018   50.0928 H   0  0  0  0  0  0  0  0  0  0  0  0
    5.9208   44.5706   52.8089 H   0  0  0  0  0  0  0  0  0  0  0  0
    4.6532   46.9315   51.4996 H   0  0  0  0  0  0  0  0  0  0  0  0
    3.6596   45.4259   51.6476 H   0  0  0  0  0  0  0  0  0  0  0  0
    1.1137   46.5203   52.6455 H   0  0  0  0  0  0  0  0  0  0  0  0
   -0.0067   41.2228   53.0829 H   0  0  0  0  0  0  0  0  0  0  0  0
    2.5150   42.7270   54.2430 H   0  0  0  0  0  0  0  0  0  0  0  0
    4.9943   48.2251   53.7558 H   0  0  0  0  0  0  0  0  0  0  0  0
    4.9717   47.1562   55.2201 H   0  0  0  0  0  0  0  0  0  0  0  0
    7.2666   47.4036   54.6218 H   0  0  0  0  0  0  0  0  0  0  0  0
    6.7518   45.7582   54.0560 H   0  0  0  0  0  0  0  0  0  0  0  0
    8.2296   48.7393   52.0838 H   0  0  0  0  0  0  0  0  0  0  0  0
    9.1576   45.8548   51.7127 H   0  0  0  0  0  0  0  0  0  0  0  0
   10.1123   47.1111   51.1486 H   0  0  0  0  0  0  0  0  0  0  0  0
   10.2313   45.8241   53.8747 H   0  0  0  0  0  0  0  0  0  0  0  0
   11.2502   47.1026   53.5160 H   0  0  0  0  0  0  0  0  0  0  0  0
    8.4735   47.2451   54.7250 H   0  0  0  0  0  0  0  0  0  0  0  0
    9.3558   48.6481   54.4793 H   0  0  0  0  0  0  0  0  0  0  0  0
    7.1742   46.2338   50.6247 H   0  0  0  0  0  0  0  0  0  0  0  0
    7.9340   45.3108   51.9864 H   0  0  0  0  0  0  0  0  0  0  0  0
  1  2  1  0
  2  3  1  0
  3  4  1  0
  4  5  1  0
  5  6  2  0
  5  7  1  0
  7  8  2  0
  8  9  1  0
  9 10  1  0
 10 11  1  0
 11 12  1  0
 11 13  2  0
 13 14  1  0
 14 15  1  0
  4 16  1  0
 16 17  1  0
 17 18  1  0
 18 19  1  0
 19 20  1  0
 20 21  1  0
 21 22  1  0
 18 23  1  0
 23  2  1  0
 15  7  1  0
 22 19  1  0
 14  9  2  0
  1 24  1  0
  1 25  1  0
  1 26  1  0
  2 27  1  1
  3 28  1  0
  3 29  1  0
  8 30  1  0
 13 31  1  0
 15 32  1  0
 16 33  1  0
 16 34  1  0
 17 35  1  0
 17 36  1  0
 19 37  1  0
 20 38  1  0
 20 39  1  0
 21 40  1  0
 21 41  1  0
 22 42  1  0
 22 43  1  0
 23 44  1  0
 23 45  1  0
M  END
>  <meeko>  (2) 
{"is_sidechain": [false], "free_energy": -6.265, "intermolecular_energy": -10.017, "internal_energy": 0.377}

$$$$
ligand_83_conformer_1_docked
     RDKit          3D

 45 48  0  0  0  0  0  0  0  0999 V2000
    8.6910   47.1150   52.2690 C   0  0  0  0  0  0  0  0  0  0  0  0
    7.2390   47.2690   52.7430 C   0  0  2  0  0  0  0  0  0  0  0  0
    7.1070   46.7800   54.1990 C   0  0  0  0  0  0  0  0  0  0  0  0
    5.8180   46.1150   54.4230 N   0  0  0  0  0  0  0  0  0  0  0  0
    4.6210   46.8900   54.6250 C   0  0  0  0  0  0  0  0  0  0  0  0
    4.6840   48.1480   54.6190 O   0  0  0  0  0  0  0  0  0  0  0  0
    3.3120   46.2430   54.8260 C   0  0  0  0  0  0  0  0  0  0  0  0
    2.3670   45.9870   53.8080 C   0  0  0  0  0  0  0  0  0  0  0  0
    1.3250   45.4410   54.5080 C   0  0  0  0  0  0  0  0  0  0  0  0
    0.1280   44.9820   54.2650 O   0  0  0  0  0  0  0  0  0  0  0  0
   -0.3510   44.6210   55.4540 C   0  0  0  0  0  0  0  0  0  0  0  0
   -2.0860   43.8720   55.7100 Br  0  0  0  0  0  0  0  0  0  0  0  0
    0.5760   44.8630   56.4840 C   0  0  0  0  0  0  0  0  0  0  0  0
    1.6270   45.3890   55.7840 C   0  0  0  0  0  0  0  0  0  0  0  0
    2.8400   45.8780   56.0550 N   0  0  0  0  0  0  0  0  0  0  0  0
    5.7170   44.6870   54.1090 C   0  0  0  0  0  0  0  0  0  0  0  0
    5.4130   44.4530   52.6240 C   0  0  0  0  0  0  0  0  0  0  0  0
    6.4230   45.1000   51.7430 N   0  0  0  0  0  0  0  0  0  0  0  0
    6.2870   44.5730   50.3640 C   0  0  0  0  0  0  0  0  0  0  0  0
    5.6700   43.1700   50.3190 C   0  0  0  0  0  0  0  0  0  0  0  0
    6.9500   42.6120   49.7220 C   0  0  0  0  0  0  0  0  0  0  0  0
    7.5860   43.9900   49.7940 C   0  0  0  0  0  0  0  0  0  0  0  0
    6.2530   46.5800   51.7600 C   0  0  0  0  0  0  0  0  0  0  0  0
    9.3562   47.0444   53.1422 H   0  0  0  0  0  0  0  0  0  0  0  0
    8.7839   46.2020   51.6626 H   0  0  0  0  0  0  0  0  0  0  0  0
    8.9733   47.9882   51.6626 H   0  0  0  0  0  0  0  0  0  0  0  0
    6.9603   48.3331   52.7394 H   0  0  0  0  0  0  0  0  0  0  0  0
    7.9189   46.0695   54.4134 H   0  0  0  0  0  0  0  0  0  0  0  0
    7.1679   47.6530   54.8655 H   0  0  0  0  0  0  0  0  0  0  0  0
    2.4478   46.1778   52.7277 H   0  0  0  0  0  0  0  0  0  0  0  0
    0.4811   44.6785   57.5643 H   0  0  0  0  0  0  0  0  0  0  0  0
    3.3060   45.9660   56.9850 H   0  0  0  0  0  0  0  0  0  0  0  0
    6.6705   44.1987   54.3590 H   0  0  0  0  0  0  0  0  0  0  0  0
    4.8908   44.2637   54.6991 H   0  0  0  0  0  0  0  0  0  0  0  0
    5.4107   43.3707   52.4276 H   0  0  0  0  0  0  0  0  0  0  0  0
    4.4317   44.8979   52.4023 H   0  0  0  0  0  0  0  0  0  0  0  0
    5.7972   45.4312   49.8807 H   0  0  0  0  0  0  0  0  0  0  0  0
    5.4218   42.7587   51.3086 H   0  0  0  0  0  0  0  0  0  0  0  0
    4.7072   43.0060   49.8130 H   0  0  0  0  0  0  0  0  0  0  0  0
    7.4452   41.8558   50.3488 H   0  0  0  0  0  0  0  0  0  0  0  0
    6.9256   42.0596   48.7711 H   0  0  0  0  0  0  0  0  0  0  0  0
    8.4431   44.0517   50.4807 H   0  0  0  0  0  0  0  0  0  0  0  0
    8.0451   44.4343   48.8986 H   0  0  0  0  0  0  0  0  0  0  0  0
    6.4317   46.9694   50.7469 H   0  0  0  0  0  0  0  0  0  0  0  0
    5.2292   46.8000   52.0966 H   0  0  0  0  0  0  0  0  0  0  0  0
  1  2  1  0
  2  3  1  0
  3  4  1  0
  4  5  1  0
  5  6  2  0
  5  7  1  0
  7  8  2  0
  8  9  1  0
  9 10  1  0
 10 11  1  0
 11 12  1  0
 11 13  2  0
 13 14  1  0
 14 15  1  0
  4 16  1  0
 16 17  1  0
 17 18  1  0
 18 19  1  0
 19 20  1  0
 20 21  1  0
 21 22  1  0
 18 23  1  0
 23  2  1  0
 15  7  1  0
 22 19  1  0
 14  9  2  0
  1 24  1  0
  1 25  1  0
  1 26  1  0
  2 27  1  1
  3 28  1  0
  3 29  1  0
  8 30  1  0
 13 31  1  0
 15 32  1  0
 16 33  1  0
 16 34  1  0
 17 35  1  0
 17 36  1  0
 19 37  1  0
 20 38  1  0
 20 39  1  0
 21 40  1  0
 21 41  1  0
 22 42  1  0
 22 43  1  0
 23 44  1  0
 23 45  1  0
M  END
>  <meeko>  (3) 
{"is_sidechain": [false], "free_energy": -6.138, "intermolecular_energy": -9.913, "internal_energy": 0.467}

$$$$
ligand_83_conformer_1_docked
     RDKit          3D

 45 48  0  0  0  0  0  0  0  0999 V2000
    5.8150   43.5140   49.9460 C   0  0  0  0  0  0  0  0  0  0  0  0
    5.8430   44.4260   51.1810 C   0  0  2  0  0  0  0  0  0  0  0  0
    4.4950   45.1590   51.3240 C   0  0  0  0  0  0  0  0  0  0  0  0
    4.3900   45.8340   52.6220 N   0  0  0  0  0  0  0  0  0  0  0  0
    3.2250   46.6160   52.9470 C   0  0  0  0  0  0  0  0  0  0  0  0
    3.1730   47.8280   52.6080 O   0  0  0  0  0  0  0  0  0  0  0  0
    2.0770   46.0250   53.6580 C   0  0  0  0  0  0  0  0  0  0  0  0
    2.0450   45.7160   55.0360 C   0  0  0  0  0  0  0  0  0  0  0  0
    0.8070   45.1490   55.1790 C   0  0  0  0  0  0  0  0  0  0  0  0
    0.0880   44.6170   56.1290 O   0  0  0  0  0  0  0  0  0  0  0  0
   -1.0430   44.2390   55.5350 C   0  0  0  0  0  0  0  0  0  0  0  0
   -2.4840   43.3900   56.4510 Br  0  0  0  0  0  0  0  0  0  0  0  0
   -1.0350   44.5420   54.1610 C   0  0  0  0  0  0  0  0  0  0  0  0
    0.1920   45.1280   54.0200 C   0  0  0  0  0  0  0  0  0  0  0  0
    0.9250   45.6470   53.0300 N   0  0  0  0  0  0  0  0  0  0  0  0
    5.3170   45.4310   53.6840 C   0  0  0  0  0  0  0  0  0  0  0  0
    6.7050   46.0540   53.4910 C   0  0  0  0  0  0  0  0  0  0  0  0
    6.9080   46.5360   52.0970 N   0  0  0  0  0  0  0  0  0  0  0  0
    8.0980   47.4180   52.0470 C   0  0  0  0  0  0  0  0  0  0  0  0
    9.4070   46.6460   51.8470 C   0  0  0  0  0  0  0  0  0  0  0  0
    9.9070   47.1170   53.2010 C   0  0  0  0  0  0  0  0  0  0  0  0
    8.5990   47.8580   53.4280 C   0  0  0  0  0  0  0  0  0  0  0  0
    7.0680   45.3810   51.1690 C   0  0  0  0  0  0  0  0  0  0  0  0
    5.7827   42.4625   50.2674 H   0  0  0  0  0  0  0  0  0  0  0  0
    4.9234   43.7407   49.3430 H   0  0  0  0  0  0  0  0  0  0  0  0
    6.7188   43.6855   49.3430 H   0  0  0  0  0  0  0  0  0  0  0  0
    5.9734   43.8055   52.0799 H   0  0  0  0  0  0  0  0  0  0  0  0
    4.4075   45.9076   50.5228 H   0  0  0  0  0  0  0  0  0  0  0  0
    3.6868   44.4162   51.2528 H   0  0  0  0  0  0  0  0  0  0  0  0
    2.8179   45.8873   55.7997 H   0  0  0  0  0  0  0  0  0  0  0  0
   -1.8097   44.3567   53.4024 H   0  0  0  0  0  0  0  0  0  0  0  0
    0.6740   45.7310   52.0200 H   0  0  0  0  0  0  0  0  0  0  0  0
    4.9118   45.7564   54.6535 H   0  0  0  0  0  0  0  0  0  0  0  0
    5.4241   44.3368   53.6491 H   0  0  0  0  0  0  0  0  0  0  0  0
    6.8122   46.9044   54.1805 H   0  0  0  0  0  0  0  0  0  0  0  0
    7.4582   45.2792   53.6970 H   0  0  0  0  0  0  0  0  0  0  0  0
    7.7527   48.1602   51.3122 H   0  0  0  0  0  0  0  0  0  0  0  0
    9.2766   45.5563   51.7729 H   0  0  0  0  0  0  0  0  0  0  0  0
   10.0144   46.8129   50.9453 H   0  0  0  0  0  0  0  0  0  0  0  0
   10.0927   46.3041   53.9185 H   0  0  0  0  0  0  0  0  0  0  0  0
   10.8678   47.6458   53.2859 H   0  0  0  0  0  0  0  0  0  0  0  0
    8.0028   47.4672   54.2658 H   0  0  0  0  0  0  0  0  0  0  0  0
    8.6069   48.9238   53.7000 H   0  0  0  0  0  0  0  0  0  0  0  0
    7.2032   45.7666   50.1477 H   0  0  0  0  0  0  0  0  0  0  0  0
    7.9417   44.8037   51.5058 H   0  0  0  0  0  0  0  0  0  0  0  0
  1  2  1  0
  2  3  1  0
  3  4  1  0
  4  5  1  0
  5  6  2  0
  5  7  1  0
  7  8  2  0
  8  9  1  0
  9 10  1  0
 10 11  1  0
 11 12  1  0
 11 13  2  0
 13 14  1  0
 14 15  1  0
  4 16  1  0
 16 17  1  0
 17 18  1  0
 18 19  1  0
 19 20  1  0
 20 21  1  0
 21 22  1  0
 18 23  1  0
 23  2  1  0
 15  7  1  0
 22 19  1  0
 14  9  2  0
  1 24  1  0
  1 25  1  0
  1 26  1  0
  2 27  1  1
  3 28  1  0
  3 29  1  0
  8 30  1  0
 13 31  1  0
 15 32  1  0
 16 33  1  0
 16 34  1  0
 17 35  1  0
 17 36  1  0
 19 37  1  0
 20 38  1  0
 20 39  1  0
 21 40  1  0
 21 41  1  0
 22 42  1  0
 22 43  1  0
 23 44  1  0
 23 45  1  0
M  END
>  <meeko>  (4) 
{"is_sidechain": [false], "free_energy": -6.078, "intermolecular_energy": -9.79, "internal_energy": 0.434}

$$$$
ligand_83_conformer_1_docked
     RDKit          3D

 45 48  0  0  0  0  0  0  0  0999 V2000
    8.5720   44.1310   49.4000 C   0  0  0  0  0  0  0  0  0  0  0  0
    7.5220   44.6080   50.4130 C   0  0  2  0  0  0  0  0  0  0  0  0
    6.1410   44.0240   50.0520 C   0  0  0  0  0  0  0  0  0  0  0  0
    5.2730   43.9410   51.2310 N   0  0  0  0  0  0  0  0  0  0  0  0
    4.2520   42.9290   51.3170 C   0  0  0  0  0  0  0  0  0  0  0  0
    4.4950   41.7620   50.9070 O   0  0  0  0  0  0  0  0  0  0  0  0
    2.9270   43.2200   51.8920 C   0  0  0  0  0  0  0  0  0  0  0  0
    1.9190   43.9850   51.2660 C   0  0  0  0  0  0  0  0  0  0  0  0
    0.9340   44.0060   52.2180 C   0  0  0  0  0  0  0  0  0  0  0  0
   -0.2580   44.5140   52.3690 O   0  0  0  0  0  0  0  0  0  0  0  0
   -0.6390   44.1420   53.5900 C   0  0  0  0  0  0  0  0  0  0  0  0
   -2.3210   44.6070   54.3590 Br  0  0  0  0  0  0  0  0  0  0  0  0
    0.3500   43.3740   54.2330 C   0  0  0  0  0  0  0  0  0  0  0  0
    1.3250   43.3340   53.2750 C   0  0  0  0  0  0  0  0  0  0  0  0
    2.5550   42.8280   53.1470 N   0  0  0  0  0  0  0  0  0  0  0  0
    5.6740   44.6750   52.4350 C   0  0  0  0  0  0  0  0  0  0  0  0
    5.7440   46.1860   52.1810 C   0  0  0  0  0  0  0  0  0  0  0  0
    7.1310   46.6350   51.8830 N   0  0  0  0  0  0  0  0  0  0  0  0
    8.0510   46.1240   52.9270 C   0  0  0  0  0  0  0  0  0  0  0  0
    7.9620   46.9120   54.2400 C   0  0  0  0  0  0  0  0  0  0  0  0
    9.4060   47.3550   54.0860 C   0  0  0  0  0  0  0  0  0  0  0  0
    9.4970   46.6090   52.7660 C   0  0  0  0  0  0  0  0  0  0  0  0
    7.5490   46.1620   50.5340 C   0  0  0  0  0  0  0  0  0  0  0  0
    9.4459   43.7340   49.9372 H   0  0  0  0  0  0  0  0  0  0  0  0
    8.1398   43.3409   48.7684 H   0  0  0  0  0  0  0  0  0  0  0  0
    8.8827   44.9763   48.7684 H   0  0  0  0  0  0  0  0  0  0  0  0
    7.7609   44.2296   51.4179 H   0  0  0  0  0  0  0  0  0  0  0  0
    5.6639   44.6703   49.3006 H   0  0  0  0  0  0  0  0  0  0  0  0
    6.2864   43.0082   49.6556 H   0  0  0  0  0  0  0  0  0  0  0  0
    1.9234   44.4468   50.2676 H   0  0  0  0  0  0  0  0  0  0  0  0
    0.3410   42.9258   55.2375 H   0  0  0  0  0  0  0  0  0  0  0  0
    3.0990   42.2730   53.8450 H   0  0  0  0  0  0  0  0  0  0  0  0
    4.9407   44.4810   53.2316 H   0  0  0  0  0  0  0  0  0  0  0  0
    6.6761   44.3299   52.7293 H   0  0  0  0  0  0  0  0  0  0  0  0
    5.0987   46.4330   51.3251 H   0  0  0  0  0  0  0  0  0  0  0  0
    5.4076   46.7009   53.0930 H   0  0  0  0  0  0  0  0  0  0  0  0
    7.8098   45.0516   52.8843 H   0  0  0  0  0  0  0  0  0  0  0  0
    7.2359   47.7380   54.2176 H   0  0  0  0  0  0  0  0  0  0  0  0
    7.6325   46.4126   55.1631 H   0  0  0  0  0  0  0  0  0  0  0  0
    9.5341   48.4438   53.9958 H   0  0  0  0  0  0  0  0  0  0  0  0
   10.1355   47.1602   54.8860 H   0  0  0  0  0  0  0  0  0  0  0  0
    9.6559   47.2604   51.8940 H   0  0  0  0  0  0  0  0  0  0  0  0
   10.3072   45.8849   52.5949 H   0  0  0  0  0  0  0  0  0  0  0  0
    6.8657   46.5864   49.7837 H   0  0  0  0  0  0  0  0  0  0  0  0
    8.5851   46.4927   50.3694 H   0  0  0  0  0  0  0  0  0  0  0  0
  1  2  1  0
  2  3  1  0
  3  4  1  0
  4  5  1  0
  5  6  2  0
  5  7  1  0
  7  8  2  0
  8  9  1  0
  9 10  1  0
 10 11  1  0
 11 12  1  0
 11 13  2  0
 13 14  1  0
 14 15  1  0
  4 16  1  0
 16 17  1  0
 17 18  1  0
 18 19  1  0
 19 20  1  0
 20 21  1  0
 21 22  1  0
 18 23  1  0
 23  2  1  0
 15  7  1  0
 22 19  1  0
 14  9  2  0
  1 24  1  0
  1 25  1  0
  1 26  1  0
  2 27  1  1
  3 28  1  0
  3 29  1  0
  8 30  1  0
 13 31  1  0
 15 32  1  0
 16 33  1  0
 16 34  1  0
 17 35  1  0
 17 36  1  0
 19 37  1  0
 20 38  1  0
 20 39  1  0
 21 40  1  0
 21 41  1  0
 22 42  1  0
 22 43  1  0
 23 44  1  0
 23 45  1  0
M  END
>  <meeko>  (5) 
{"is_sidechain": [false], "free_energy": -5.684, "intermolecular_energy": -9.359, "internal_energy": 0.606}

$$$$
