ligand_70_conformer_3_docked
     RDKit          3D

 51 53  0  0  0  0  0  0  0  0999 V2000
    7.3660   45.2320   49.8760 C   0  0  0  0  0  0  0  0  0  0  0  0
    7.8970   43.9610   49.3100 C   0  0  0  0  0  0  0  0  0  0  0  0
    9.1220   43.8690   49.0210 O   0  0  0  0  0  0  0  0  0  0  0  0
    7.0210   42.8990   49.0590 O   0  0  0  0  0  0  0  0  0  0  0  0
    6.5850   41.9860   50.0660 C   0  0  0  0  0  0  0  0  0  0  0  0
    5.0920   41.8060   50.0060 C   0  0  0  0  0  0  0  0  0  0  0  0
    4.6230   41.0390   49.1200 O   0  0  0  0  0  0  0  0  0  0  0  0
    4.1920   42.4930   50.9080 N   0  0  0  0  0  0  0  0  0  0  0  0
    2.7600   42.1340   50.9830 C   0  0  0  0  0  0  0  0  0  0  0  0
    2.2250   42.2880   52.4120 C   0  0  0  0  0  0  0  0  0  0  0  0
    2.6280   43.5760   52.9540 N   0  0  0  0  0  0  0  0  0  0  0  0
    2.0320   44.2010   53.9570 N   0  0  0  0  0  0  0  0  0  0  0  0
    2.7640   45.3020   54.2380 C   0  0  0  0  0  0  0  0  0  0  0  0
    3.8570   45.3490   53.3910 C   0  0  0  0  0  0  0  0  0  0  0  0
    5.1460   46.5410   53.3920 S   0  0  2  0  0  6  0  0  0  0  0  0
    4.5580   48.0290   54.1760 C   0  0  0  0  0  0  0  0  0  0  0  0
    5.5500   46.8410   51.9760 O   0  0  0  0  0  0  0  0  0  0  0  0
    6.3800   45.9600   54.1750 N   0  0  0  0  0  0  0  0  0  0  0  0
    7.6010   46.6790   54.3710 C   0  0  0  0  0  0  0  0  0  0  0  0
    7.6110   47.7810   54.9810 O   0  0  0  0  0  0  0  0  0  0  0  0
    8.8830   46.1360   53.8140 C   0  0  2  0  0  0  0  0  0  0  0  0
   10.0860   47.0800   53.9180 C   0  0  0  0  0  0  0  0  0  0  0  0
    9.4410   46.8200   52.5600 C   0  0  0  0  0  0  0  0  0  0  0  0
   10.2420   45.9270   51.6100 C   0  0  0  0  0  0  0  0  0  0  0  0
    8.6840   48.0100   51.9490 C   0  0  0  0  0  0  0  0  0  0  0  0
    3.7430   44.2290   52.5980 C   0  0  0  0  0  0  0  0  0  0  0  0
    4.6690   43.7500   51.5220 C   0  0  0  0  0  0  0  0  0  0  0  0
    7.3872   45.1812   50.9746 H   0  0  0  0  0  0  0  0  0  0  0  0
    7.9880   46.0730   49.5357 H   0  0  0  0  0  0  0  0  0  0  0  0
    6.3306   45.3806   49.5357 H   0  0  0  0  0  0  0  0  0  0  0  0
    7.0732   41.0130   49.9080 H   0  0  0  0  0  0  0  0  0  0  0  0
    6.8544   42.3906   51.0528 H   0  0  0  0  0  0  0  0  0  0  0  0
    2.1890   42.7934   50.3128 H   0  0  0  0  0  0  0  0  0  0  0  0
    2.6476   41.0826   50.6799 H   0  0  0  0  0  0  0  0  0  0  0  0
    1.1269   42.2248   52.3994 H   0  0  0  0  0  0  0  0  0  0  0  0
    2.6358   41.4850   53.0416 H   0  0  0  0  0  0  0  0  0  0  0  0
    2.5282   46.0428   55.0162 H   0  0  0  0  0  0  0  0  0  0  0  0
    4.6047   47.9108   55.2686 H   0  0  0  0  0  0  0  0  0  0  0  0
    5.1884   48.8775   53.8717 H   0  0  0  0  0  0  0  0  0  0  0  0
    3.5178   48.2174   53.8717 H   0  0  0  0  0  0  0  0  0  0  0  0
    8.6679   45.0934   54.0910 H   0  0  0  0  0  0  0  0  0  0  0  0
    9.9737   48.0621   54.4006 H   0  0  0  0  0  0  0  0  0  0  0  0
   11.1057   46.9971   54.3222 H   0  0  0  0  0  0  0  0  0  0  0  0
   10.8638   45.2337   52.1954 H   0  0  0  0  0  0  0  0  0  0  0  0
    9.5504   45.3530   50.9759 H   0  0  0  0  0  0  0  0  0  0  0  0
   10.8876   46.5524   50.9759 H   0  0  0  0  0  0  0  0  0  0  0  0
    8.2821   48.6417   52.7549 H   0  0  0  0  0  0  0  0  0  0  0  0
    9.3719   48.6020   51.3274 H   0  0  0  0  0  0  0  0  0  0  0  0
    7.8562   47.6379   51.3274 H   0  0  0  0  0  0  0  0  0  0  0  0
    4.7394   44.5229   50.7425 H   0  0  0  0  0  0  0  0  0  0  0  0
    5.6518   43.5573   51.9769 H   0  0  0  0  0  0  0  0  0  0  0  0
  1  2  1  0
  2  3  2  0
  2  4  1  0
  4  5  1  0
  5  6  1  0
  6  7  2  0
  6  8  1  0
  8  9  1  0
  9 10  1  0
 10 11  1  0
 11 12  1  0
 12 13  2  0
 13 14  1  0
 14 15  1  0
 15 16  1  1
 15 17  2  0
 15 18  2  0
 18 19  1  0
 19 20  2  0
 19 21  1  0
 21 22  1  0
 22 23  1  0
 23 24  1  0
 23 25  1  0
 14 26  2  0
 26 27  1  0
 27  8  1  0
 26 11  1  0
 23 21  1  0
  1 28  1  0
  1 29  1  0
  1 30  1  0
  5 31  1  0
  5 32  1  0
  9 33  1  0
  9 34  1  0
 10 35  1  0
 10 36  1  0
 13 37  1  0
 16 38  1  0
 16 39  1  0
 16 40  1  0
 21 41  1  6
 22 42  1  0
 22 43  1  0
 24 44  1  0
 24 45  1  0
 24 46  1  0
 25 47  1  0
 25 48  1  0
 25 49  1  0
 27 50  1  0
 27 51  1  0
M  END
>  <meeko>  (1) 
{"is_sidechain": [false], "free_energy": -8.921, "intermolecular_energy": -12.572, "internal_energy": -0.591}

$$$$
ligand_70_conformer_3_docked
     RDKit          3D

 51 53  0  0  0  0  0  0  0  0999 V2000
   -3.3800   44.2660   57.8930 C   0  0  0  0  0  0  0  0  0  0  0  0
   -3.0230   43.1220   57.0090 C   0  0  0  0  0  0  0  0  0  0  0  0
   -3.2970   41.9450   57.3690 O   0  0  0  0  0  0  0  0  0  0  0  0
   -2.3440   43.3640   55.8100 O   0  0  0  0  0  0  0  0  0  0  0  0
   -2.0000   44.6710   55.3510 C   0  0  0  0  0  0  0  0  0  0  0  0
   -0.5120   44.8860   55.4320 C   0  0  0  0  0  0  0  0  0  0  0  0
    0.0030   45.0310   56.5750 O   0  0  0  0  0  0  0  0  0  0  0  0
    0.3260   44.9480   54.2540 N   0  0  0  0  0  0  0  0  0  0  0  0
   -0.0800   44.3010   52.9880 C   0  0  0  0  0  0  0  0  0  0  0  0
    0.3920   45.1110   51.7750 C   0  0  0  0  0  0  0  0  0  0  0  0
    1.7950   45.4640   51.9340 N   0  0  0  0  0  0  0  0  0  0  0  0
    2.6150   45.7900   50.9470 N   0  0  0  0  0  0  0  0  0  0  0  0
    3.7890   46.1610   51.5040 C   0  0  0  0  0  0  0  0  0  0  0  0
    3.6840   46.0770   52.8820 C   0  0  0  0  0  0  0  0  0  0  0  0
    4.9080   46.5100   54.0630 S   0  0  2  0  0  6  0  0  0  0  0  0
    4.9160   45.2920   55.3620 C   0  0  0  0  0  0  0  0  0  0  0  0
    4.5900   47.8610   54.6380 O   0  0  0  0  0  0  0  0  0  0  0  0
    6.3100   46.5630   53.3520 N   0  0  0  0  0  0  0  0  0  0  0  0
    7.5290   46.8800   54.0310 C   0  0  0  0  0  0  0  0  0  0  0  0
    7.5410   47.6980   54.9890 O   0  0  0  0  0  0  0  0  0  0  0  0
    8.8170   46.2610   53.5770 C   0  0  2  0  0  0  0  0  0  0  0  0
   10.0390   47.1830   53.6480 C   0  0  0  0  0  0  0  0  0  0  0  0
    9.4410   46.8180   52.2930 C   0  0  0  0  0  0  0  0  0  0  0  0
   10.2560   45.8260   51.4580 C   0  0  0  0  0  0  0  0  0  0  0  0
    8.7410   47.9660   51.5480 C   0  0  0  0  0  0  0  0  0  0  0  0
    2.3980   45.6430   53.1170 C   0  0  0  0  0  0  0  0  0  0  0  0
    1.7200   45.4070   54.4320 C   0  0  0  0  0  0  0  0  0  0  0  0
   -3.2845   43.9600   58.9453 H   0  0  0  0  0  0  0  0  0  0  0  0
   -2.7022   45.1091   57.6934 H   0  0  0  0  0  0  0  0  0  0  0  0
   -4.4170   44.5740   57.6934 H   0  0  0  0  0  0  0  0  0  0  0  0
   -2.3254   44.7847   54.3064 H   0  0  0  0  0  0  0  0  0  0  0  0
   -2.5011   45.4143   55.9885 H   0  0  0  0  0  0  0  0  0  0  0  0
    0.3620   43.2948   52.9415 H   0  0  0  0  0  0  0  0  0  0  0  0
   -1.1782   44.2439   52.9627 H   0  0  0  0  0  0  0  0  0  0  0  0
    0.2680   44.5087   50.8629 H   0  0  0  0  0  0  0  0  0  0  0  0
   -0.2073   46.0301   51.6963 H   0  0  0  0  0  0  0  0  0  0  0  0
    4.6851   46.4790   50.9509 H   0  0  0  0  0  0  0  0  0  0  0  0
    4.9127   45.7977   56.3388 H   0  0  0  0  0  0  0  0  0  0  0  0
    4.0220   44.6570   55.2748 H   0  0  0  0  0  0  0  0  0  0  0  0
    5.8183   44.6688   55.2748 H   0  0  0  0  0  0  0  0  0  0  0  0
    8.5640   45.2521   53.9349 H   0  0  0  0  0  0  0  0  0  0  0  0
    9.9335   48.2063   54.0376 H   0  0  0  0  0  0  0  0  0  0  0  0
   11.0395   47.1135   54.0998 H   0  0  0  0  0  0  0  0  0  0  0  0
   10.8101   45.1516   52.1275 H   0  0  0  0  0  0  0  0  0  0  0  0
    9.5777   45.2368   50.8234 H   0  0  0  0  0  0  0  0  0  0  0  0
   10.9656   46.3771   50.8234 H   0  0  0  0  0  0  0  0  0  0  0  0
    8.3124   48.6690   52.2774 H   0  0  0  0  0  0  0  0  0  0  0  0
    9.4717   48.4928   50.9167 H   0  0  0  0  0  0  0  0  0  0  0  0
    7.9380   47.5577   50.9167 H   0  0  0  0  0  0  0  0  0  0  0  0
    2.2792   44.6408   54.9889 H   0  0  0  0  0  0  0  0  0  0  0  0
    1.6998   46.3588   54.9830 H   0  0  0  0  0  0  0  0  0  0  0  0
  1  2  1  0
  2  3  2  0
  2  4  1  0
  4  5  1  0
  5  6  1  0
  6  7  2  0
  6  8  1  0
  8  9  1  0
  9 10  1  0
 10 11  1  0
 11 12  1  0
 12 13  2  0
 13 14  1  0
 14 15  1  0
 15 16  1  1
 15 17  2  0
 15 18  2  0
 18 19  1  0
 19 20  2  0
 19 21  1  0
 21 22  1  0
 22 23  1  0
 23 24  1  0
 23 25  1  0
 14 26  2  0
 26 27  1  0
 27  8  1  0
 26 11  1  0
 23 21  1  0
  1 28  1  0
  1 29  1  0
  1 30  1  0
  5 31  1  0
  5 32  1  0
  9 33  1  0
  9 34  1  0
 10 35  1  0
 10 36  1  0
 13 37  1  0
 16 38  1  0
 16 39  1  0
 16 40  1  0
 21 41  1  6
 22 42  1  0
 22 43  1  0
 24 44  1  0
 24 45  1  0
 24 46  1  0
 25 47  1  0
 25 48  1  0
 25 49  1  0
 27 50  1  0
 27 51  1  0
M  END
>  <meeko>  (2) 
{"is_sidechain": [false], "free_energy": -8.48, "intermolecular_energy": -12.304, "internal_energy": -0.237}

$$$$
ligand_70_conformer_3_docked
     RDKit          3D

 51 53  0  0  0  0  0  0  0  0999 V2000
   -0.6860   48.3810   59.2240 C   0  0  0  0  0  0  0  0  0  0  0  0
    0.0790   47.2130   58.7040 C   0  0  0  0  0  0  0  0  0  0  0  0
    1.2420   46.9850   59.1370 O   0  0  0  0  0  0  0  0  0  0  0  0
   -0.4830   46.4110   57.7040 O   0  0  0  0  0  0  0  0  0  0  0  0
    0.1690   45.2660   57.1560 C   0  0  0  0  0  0  0  0  0  0  0  0
   -0.4100   44.9220   55.8100 C   0  0  0  0  0  0  0  0  0  0  0  0
   -1.6230   44.5750   55.7590 O   0  0  0  0  0  0  0  0  0  0  0  0
    0.3770   44.9570   54.5960 N   0  0  0  0  0  0  0  0  0  0  0  0
   -0.0780   44.2720   53.3670 C   0  0  0  0  0  0  0  0  0  0  0  0
    0.3370   45.0510   52.1130 C   0  0  0  0  0  0  0  0  0  0  0  0
    1.7420   45.4170   52.2020 N   0  0  0  0  0  0  0  0  0  0  0  0
    2.5170   45.7200   51.1730 N   0  0  0  0  0  0  0  0  0  0  0  0
    3.7110   46.1140   51.6690 C   0  0  0  0  0  0  0  0  0  0  0  0
    3.6660   46.0680   53.0510 C   0  0  0  0  0  0  0  0  0  0  0  0
    4.9350   46.5410   54.1670 S   0  0  2  0  0  6  0  0  0  0  0  0
    4.9990   45.3670   55.5050 C   0  0  0  0  0  0  0  0  0  0  0  0
    4.6380   47.9110   54.7090 O   0  0  0  0  0  0  0  0  0  0  0  0
    6.3070   46.5720   53.3980 N   0  0  0  0  0  0  0  0  0  0  0  0
    7.5510   46.9120   54.0160 C   0  0  0  0  0  0  0  0  0  0  0  0
    7.6000   47.7620   54.9460 O   0  0  0  0  0  0  0  0  0  0  0  0
    8.8220   46.2800   53.5320 C   0  0  2  0  0  0  0  0  0  0  0  0
   10.0580   47.1830   53.5880 C   0  0  0  0  0  0  0  0  0  0  0  0
    9.4290   46.8400   52.2410 C   0  0  0  0  0  0  0  0  0  0  0  0
   10.2130   45.8460   51.3810 C   0  0  0  0  0  0  0  0  0  0  0  0
    8.7320   48.0060   51.5210 C   0  0  0  0  0  0  0  0  0  0  0  0
    2.3940   45.6320   53.3530 C   0  0  0  0  0  0  0  0  0  0  0  0
    1.7730   45.4290   54.7010 C   0  0  0  0  0  0  0  0  0  0  0  0
   -0.6759   48.3656   60.3238 H   0  0  0  0  0  0  0  0  0  0  0  0
   -0.2221   49.3119   58.8660 H   0  0  0  0  0  0  0  0  0  0  0  0
   -1.7248   48.3277   58.8660 H   0  0  0  0  0  0  0  0  0  0  0  0
    1.2422   45.4797   57.0442 H   0  0  0  0  0  0  0  0  0  0  0  0
    0.0202   44.4135   57.8351 H   0  0  0  0  0  0  0  0  0  0  0  0
    0.3686   43.2674   53.3297 H   0  0  0  0  0  0  0  0  0  0  0  0
   -1.1759   44.2074   53.3899 H   0  0  0  0  0  0  0  0  0  0  0  0
    0.1790   44.4227   51.2240 H   0  0  0  0  0  0  0  0  0  0  0  0
   -0.2716   45.9640   52.0349 H   0  0  0  0  0  0  0  0  0  0  0  0
    4.5801   46.4222   51.0693 H   0  0  0  0  0  0  0  0  0  0  0  0
    4.9698   45.9032   56.4650 H   0  0  0  0  0  0  0  0  0  0  0  0
    4.1366   44.6875   55.4382 H   0  0  0  0  0  0  0  0  0  0  0  0
    5.9302   44.7853   55.4382 H   0  0  0  0  0  0  0  0  0  0  0  0
    8.5615   45.2716   53.8860 H   0  0  0  0  0  0  0  0  0  0  0  0
    9.9750   48.2038   53.9892 H   0  0  0  0  0  0  0  0  0  0  0  0
   11.0658   47.0945   54.0198 H   0  0  0  0  0  0  0  0  0  0  0  0
   10.7617   45.1503   52.0328 H   0  0  0  0  0  0  0  0  0  0  0  0
    9.5152   45.2804   50.7460 H   0  0  0  0  0  0  0  0  0  0  0  0
   10.9256   46.3928   50.7460 H   0  0  0  0  0  0  0  0  0  0  0  0
    8.3166   48.7010   52.2656 H   0  0  0  0  0  0  0  0  0  0  0  0
    9.4613   48.5365   50.8911 H   0  0  0  0  0  0  0  0  0  0  0  0
    7.9195   47.6148   50.8911 H   0  0  0  0  0  0  0  0  0  0  0  0
    2.3607   44.6823   55.2551 H   0  0  0  0  0  0  0  0  0  0  0  0
    1.7686   46.3963   55.2248 H   0  0  0  0  0  0  0  0  0  0  0  0
  1  2  1  0
  2  3  2  0
  2  4  1  0
  4  5  1  0
  5  6  1  0
  6  7  2  0
  6  8  1  0
  8  9  1  0
  9 10  1  0
 10 11  1  0
 11 12  1  0
 12 13  2  0
 13 14  1  0
 14 15  1  0
 15 16  1  1
 15 17  2  0
 15 18  2  0
 18 19  1  0
 19 20  2  0
 19 21  1  0
 21 22  1  0
 22 23  1  0
 23 24  1  0
 23 25  1  0
 14 26  2  0
 26 27  1  0
 27  8  1  0
 26 11  1  0
 23 21  1  0
  1 28  1  0
  1 29  1  0
  1 30  1  0
  5 31  1  0
  5 32  1  0
  9 33  1  0
  9 34  1  0
 10 35  1  0
 10 36  1  0
 13 37  1  0
 16 38  1  0
 16 39  1  0
 16 40  1  0
 21 41  1  6
 22 42  1  0
 22 43  1  0
 24 44  1  0
 24 45  1  0
 24 46  1  0
 25 47  1  0
 25 48  1  0
 25 49  1  0
 27 50  1  0
 27 51  1  0
M  END
>  <meeko>  (3) 
{"is_sidechain": [false], "free_energy": -8.457, "intermolecular_energy": -12.249, "internal_energy": -0.26}

$$$$
ligand_70_conformer_3_docked
     RDKit          3D

 51 53  0  0  0  0  0  0  0  0999 V2000
   10.6870   47.5130   55.7210 C   0  0  0  0  0  0  0  0  0  0  0  0
    9.5580   47.2960   54.7750 C   0  0  0  0  0  0  0  0  0  0  0  0
    8.4710   47.9140   54.9470 O   0  0  0  0  0  0  0  0  0  0  0  0
    9.6990   46.3730   53.7330 O   0  0  0  0  0  0  0  0  0  0  0  0
    9.9140   46.7490   52.3730 C   0  0  0  0  0  0  0  0  0  0  0  0
    8.6070   47.0760   51.7020 C   0  0  0  0  0  0  0  0  0  0  0  0
    8.2990   48.2920   51.5670 O   0  0  0  0  0  0  0  0  0  0  0  0
    7.6990   46.0500   51.2350 N   0  0  0  0  0  0  0  0  0  0  0  0
    7.8990   45.3870   49.9280 C   0  0  0  0  0  0  0  0  0  0  0  0
    7.4660   43.9170   49.9820 C   0  0  0  0  0  0  0  0  0  0  0  0
    6.1520   43.8120   50.5990 N   0  0  0  0  0  0  0  0  0  0  0  0
    5.3190   42.7950   50.4480 N   0  0  0  0  0  0  0  0  0  0  0  0
    4.2640   43.0140   51.2640 C   0  0  0  0  0  0  0  0  0  0  0  0
    4.4610   44.1970   51.9540 C   0  0  0  0  0  0  0  0  0  0  0  0
    3.4160   44.8930   53.1810 S   0  0  2  0  0  6  0  0  0  0  0  0
    2.8560   46.4900   52.6270 C   0  0  0  0  0  0  0  0  0  0  0  0
    4.1840   45.0430   54.4640 O   0  0  0  0  0  0  0  0  0  0  0  0
    2.1920   43.9330   53.4150 N   0  0  0  0  0  0  0  0  0  0  0  0
    1.1420   44.2050   54.3470 C   0  0  0  0  0  0  0  0  0  0  0  0
    1.3180   45.0070   55.3030 O   0  0  0  0  0  0  0  0  0  0  0  0
   -0.1760   43.5020   54.2120 C   0  0  2  0  0  0  0  0  0  0  0  0
   -0.3840   42.7660   52.8830 C   0  0  0  0  0  0  0  0  0  0  0  0
   -1.1520   44.0530   53.1670 C   0  0  0  0  0  0  0  0  0  0  0  0
   -2.6400   43.8770   53.4810 C   0  0  0  0  0  0  0  0  0  0  0  0
   -0.7450   45.2670   52.3170 C   0  0  0  0  0  0  0  0  0  0  0  0
    5.6780   44.6690   51.5140 C   0  0  0  0  0  0  0  0  0  0  0  0
    6.4120   45.9010   51.9460 C   0  0  0  0  0  0  0  0  0  0  0  0
   10.3179   47.4421   56.7548 H   0  0  0  0  0  0  0  0  0  0  0  0
   11.4581   46.7466   55.5536 H   0  0  0  0  0  0  0  0  0  0  0  0
   11.1191   48.5106   55.5536 H   0  0  0  0  0  0  0  0  0  0  0  0
   10.5680   47.6329   52.3411 H   0  0  0  0  0  0  0  0  0  0  0  0
   10.3851   45.9084   51.8424 H   0  0  0  0  0  0  0  0  0  0  0  0
    7.3027   45.9093   49.1654 H   0  0  0  0  0  0  0  0  0  0  0  0
    8.9691   45.4267   49.6765 H   0  0  0  0  0  0  0  0  0  0  0  0
    7.4232   43.5113   48.9605 H   0  0  0  0  0  0  0  0  0  0  0  0
    8.1934   43.3460   50.5776 H   0  0  0  0  0  0  0  0  0  0  0  0
    3.3880   42.3562   51.3637 H   0  0  0  0  0  0  0  0  0  0  0  0
    2.6339   47.1233   53.4985 H   0  0  0  0  0  0  0  0  0  0  0  0
    3.6416   46.9638   52.0201 H   0  0  0  0  0  0  0  0  0  0  0  0
    1.9465   46.3694   52.0201 H   0  0  0  0  0  0  0  0  0  0  0  0
   -0.2537   43.2472   55.2793 H   0  0  0  0  0  0  0  0  0  0  0  0
    0.4158   42.7584   52.1278 H   0  0  0  0  0  0  0  0  0  0  0  0
   -0.6636   41.7411   52.5978 H   0  0  0  0  0  0  0  0  0  0  0  0
   -2.7851   43.8598   54.5712 H   0  0  0  0  0  0  0  0  0  0  0  0
   -3.2075   44.7143   53.0487 H   0  0  0  0  0  0  0  0  0  0  0  0
   -2.9965   42.9304   53.0487 H   0  0  0  0  0  0  0  0  0  0  0  0
   -0.4656   46.1005   52.9782 H   0  0  0  0  0  0  0  0  0  0  0  0
    0.1125   44.9992   51.6822 H   0  0  0  0  0  0  0  0  0  0  0  0
   -1.5906   45.5702   51.6822 H   0  0  0  0  0  0  0  0  0  0  0  0
    5.7855   46.7806   51.7367 H   0  0  0  0  0  0  0  0  0  0  0  0
    6.6236   45.8137   53.0219 H   0  0  0  0  0  0  0  0  0  0  0  0
  1  2  1  0
  2  3  2  0
  2  4  1  0
  4  5  1  0
  5  6  1  0
  6  7  2  0
  6  8  1  0
  8  9  1  0
  9 10  1  0
 10 11  1  0
 11 12  1  0
 12 13  2  0
 13 14  1  0
 14 15  1  0
 15 16  1  6
 15 17  2  0
 15 18  2  0
 18 19  1  0
 19 20  2  0
 19 21  1  0
 21 22  1  0
 22 23  1  0
 23 24  1  0
 23 25  1  0
 14 26  2  0
 26 27  1  0
 27  8  1  0
 26 11  1  0
 23 21  1  0
  1 28  1  0
  1 29  1  0
  1 30  1  0
  5 31  1  0
  5 32  1  0
  9 33  1  0
  9 34  1  0
 10 35  1  0
 10 36  1  0
 13 37  1  0
 16 38  1  0
 16 39  1  0
 16 40  1  0
 21 41  1  1
 22 42  1  0
 22 43  1  0
 24 44  1  0
 24 45  1  0
 24 46  1  0
 25 47  1  0
 25 48  1  0
 25 49  1  0
 27 50  1  0
 27 51  1  0
M  END
>  <meeko>  (4) 
{"is_sidechain": [false], "free_energy": -7.862, "intermolecular_energy": -11.085, "internal_energy": -0.586}

$$$$
ligand_70_conformer_3_docked
     RDKit          3D

 51 53  0  0  0  0  0  0  0  0999 V2000
    7.0140   43.0950   49.2870 C   0  0  0  0  0  0  0  0  0  0  0  0
    6.1620   42.1230   48.5470 C   0  0  0  0  0  0  0  0  0  0  0  0
    6.0220   42.2380   47.2990 O   0  0  0  0  0  0  0  0  0  0  0  0
    5.4870   41.1210   49.2540 O   0  0  0  0  0  0  0  0  0  0  0  0
    4.9620   41.3050   50.5690 C   0  0  0  0  0  0  0  0  0  0  0  0
    3.5040   41.6730   50.5090 C   0  0  0  0  0  0  0  0  0  0  0  0
    2.8070   41.1800   49.5790 O   0  0  0  0  0  0  0  0  0  0  0  0
    2.8930   42.5770   51.4600 N   0  0  0  0  0  0  0  0  0  0  0  0
    1.4260   42.6330   51.6320 C   0  0  0  0  0  0  0  0  0  0  0  0
    1.0500   42.9190   53.0900 C   0  0  0  0  0  0  0  0  0  0  0  0
    1.8320   44.0390   53.5900 N   0  0  0  0  0  0  0  0  0  0  0  0
    1.5020   44.7990   54.6240 N   0  0  0  0  0  0  0  0  0  0  0  0
    2.5290   45.6480   54.8440 C   0  0  0  0  0  0  0  0  0  0  0  0
    3.5340   45.3940   53.9280 C   0  0  0  0  0  0  0  0  0  0  0  0
    5.1020   46.1770   53.8320 S   0  0  2  0  0  6  0  0  0  0  0  0
    6.2130   45.3930   54.9820 C   0  0  0  0  0  0  0  0  0  0  0  0
    4.9550   47.6310   54.1820 O   0  0  0  0  0  0  0  0  0  0  0  0
    5.6500   46.0470   52.3640 N   0  0  0  0  0  0  0  0  0  0  0  0
    6.9130   46.5720   51.9430 C   0  0  0  0  0  0  0  0  0  0  0  0
    7.4790   46.1380   50.9040 O   0  0  0  0  0  0  0  0  0  0  0  0
    7.5920   47.6280   52.7630 C   0  0  2  0  0  0  0  0  0  0  0  0
    8.8120   48.2780   52.1010 C   0  0  0  0  0  0  0  0  0  0  0  0
    9.0050   47.3140   53.2670 C   0  0  0  0  0  0  0  0  0  0  0  0
    9.4020   47.9590   54.5970 C   0  0  0  0  0  0  0  0  0  0  0  0
    9.6530   45.9670   52.9100 C   0  0  0  0  0  0  0  0  0  0  0  0
    3.0600   44.3560   53.1560 C   0  0  0  0  0  0  0  0  0  0  0  0
    3.7420   43.6450   52.0270 C   0  0  0  0  0  0  0  0  0  0  0  0
    6.8841   42.9468   50.3692 H   0  0  0  0  0  0  0  0  0  0  0  0
    8.0690   42.9360   49.0192 H   0  0  0  0  0  0  0  0  0  0  0  0
    6.7182   44.1201   49.0192 H   0  0  0  0  0  0  0  0  0  0  0  0
    5.0762   40.3706   51.1381 H   0  0  0  0  0  0  0  0  0  0  0  0
    5.5140   42.1193   51.0611 H   0  0  0  0  0  0  0  0  0  0  0  0
    1.0200   43.4313   50.9934 H   0  0  0  0  0  0  0  0  0  0  0  0
    1.0043   41.6575   51.3482 H   0  0  0  0  0  0  0  0  0  0  0  0
   -0.0204   43.1655   53.1495 H   0  0  0  0  0  0  0  0  0  0  0  0
    1.2597   42.0283   53.7005 H   0  0  0  0  0  0  0  0  0  0  0  0
    2.5612   46.4194   55.6275 H   0  0  0  0  0  0  0  0  0  0  0  0
    5.8946   45.6177   56.0106 H   0  0  0  0  0  0  0  0  0  0  0  0
    6.1975   44.3047   54.8228 H   0  0  0  0  0  0  0  0  0  0  0  0
    7.2332   45.7723   54.8228 H   0  0  0  0  0  0  0  0  0  0  0  0
    6.6659   47.9830   53.2388 H   0  0  0  0  0  0  0  0  0  0  0  0
    9.1107   47.9789   51.0855 H   0  0  0  0  0  0  0  0  0  0  0  0
    9.1217   49.3118   51.8883 H   0  0  0  0  0  0  0  0  0  0  0  0
    9.0247   47.3460   55.4288 H   0  0  0  0  0  0  0  0  0  0  0  0
   10.4982   48.0265   54.6590 H   0  0  0  0  0  0  0  0  0  0  0  0
    8.9684   48.9680   54.6590 H   0  0  0  0  0  0  0  0  0  0  0  0
    9.9120   45.4285   53.8335 H   0  0  0  0  0  0  0  0  0  0  0  0
    8.9460   45.3648   52.3205 H   0  0  0  0  0  0  0  0  0  0  0  0
   10.5647   46.1435   52.3205 H   0  0  0  0  0  0  0  0  0  0  0  0
    3.9743   44.3732   51.2359 H   0  0  0  0  0  0  0  0  0  0  0  0
    4.6594   43.1814   52.4187 H   0  0  0  0  0  0  0  0  0  0  0  0
  1  2  1  0
  2  3  2  0
  2  4  1  0
  4  5  1  0
  5  6  1  0
  6  7  2  0
  6  8  1  0
  8  9  1  0
  9 10  1  0
 10 11  1  0
 11 12  1  0
 12 13  2  0
 13 14  1  0
 14 15  1  0
 15 16  1  1
 15 17  2  0
 15 18  2  0
 18 19  1  0
 19 20  2  0
 19 21  1  0
 21 22  1  0
 22 23  1  0
 23 24  1  0
 23 25  1  0
 14 26  2  0
 26 27  1  0
 27  8  1  0
 26 11  1  0
 23 21  1  0
  1 28  1  0
  1 29  1  0
  1 30  1  0
  5 31  1  0
  5 32  1  0
  9 33  1  0
  9 34  1  0
 10 35  1  0
 10 36  1  0
 13 37  1  0
 16 38  1  0
 16 39  1  0
 16 40  1  0
 21 41  1  1
 22 42  1  0
 22 43  1  0
 24 44  1  0
 24 45  1  0
 24 46  1  0
 25 47  1  0
 25 48  1  0
 25 49  1  0
 27 50  1  0
 27 51  1  0
M  END
>  <meeko>  (5) 
{"is_sidechain": [false], "free_energy": -7.86, "intermolecular_energy": -11.881, "internal_energy": 0.213}

$$$$
