MODEL 1
REMARK VINA RESULT:   -10.257      0.000      0.000
REMARK INTER + INTRA:         -12.202
REMARK INTER:                 -12.056
REMARK INTRA:                  -0.147
REMARK UNBOUND:                -0.147
REMARK SMILES O=c1[nH]c(CN2CCC(c3nc4ccccc4[nH]3)CC2)nc2c1oc1ccccc12
REMARK SMILES IDX 6 1 7 2 8 3 9 4 19 5 20 6 5 7 4 8 1 9 2 10 3 11 23 12 24 13
REMARK SMILES IDX 22 14 21 15 25 16 30 17 26 18 29 19 27 20 28 21 10 23 11 24
REMARK SMILES IDX 18 25 12 26 17 27 13 28 16 29 14 30 15 31
REMARK H PARENT 3 22 18 32
ROOT
ATOM      1  N   UNL     1       2.784  43.918  53.011  1.00  0.00    -0.296 NA
ATOM      2  C   UNL     1       2.462  45.348  52.828  1.00  0.00     0.086 C 
ATOM      3  C   UNL     1       2.208  46.024  54.190  1.00  0.00     0.027 C 
ATOM      4  C   UNL     1       1.770  45.014  55.270  1.00  0.00     0.058 C 
ATOM      5  C   UNL     1       0.879  43.920  54.659  1.00  0.00     0.027 C 
ATOM      6  C   UNL     1       1.602  43.178  53.512  1.00  0.00     0.086 C 
ENDROOT
BRANCH   1   7
ATOM      7  C   UNL     1       3.273  43.315  51.756  1.00  0.00     0.159 C 
BRANCH   7   8
ATOM      8  C   UNL     1       4.653  43.818  51.443  1.00  0.00     0.124 A 
ATOM      9  O   UNL     1       7.096  43.589  48.887  1.00  0.00    -0.265 OA
ATOM     10  C   UNL     1       6.527  43.927  49.958  1.00  0.00     0.294 A 
ATOM     11  N   UNL     1       5.283  43.453  50.273  1.00  0.00    -0.306 N 
ATOM     12  C   UNL     1       7.139  44.793  50.850  1.00  0.00     0.218 A 
ATOM     13  O   UNL     1       8.318  45.382  50.772  1.00  0.00    -0.449 OA
ATOM     14  C   UNL     1       6.491  45.142  52.000  1.00  0.00     0.124 A 
ATOM     15  N   UNL     1       5.261  44.677  52.316  1.00  0.00    -0.229 NA
ATOM     16  C   UNL     1       8.439  46.112  51.867  1.00  0.00     0.137 A 
ATOM     17  C   UNL     1       7.321  45.997  52.672  1.00  0.00     0.047 A 
ATOM     18  C   UNL     1       9.513  46.918  52.238  1.00  0.00     0.048 A 
ATOM     19  C   UNL     1       7.201  46.672  53.883  1.00  0.00     0.014 A 
ATOM     20  C   UNL     1       9.424  47.615  53.459  1.00  0.00     0.004 A 
ATOM     21  C   UNL     1       8.275  47.492  54.277  1.00  0.00     0.001 A 
ATOM     22  H   UNL     1       4.805  42.805  49.606  1.00  0.00     0.171 HD
ENDBRANCH   7   8
ENDBRANCH   1   7
BRANCH   4  23
ATOM     23  C   UNL     1       1.077  45.721  56.403  1.00  0.00     0.110 A 
ATOM     24  N   UNL     1      -0.250  46.027  56.396  1.00  0.00    -0.233 NA
ATOM     25  N   UNL     1       1.735  46.183  57.497  1.00  0.00    -0.342 N 
ATOM     26  C   UNL     1      -0.407  46.693  57.552  1.00  0.00     0.089 A 
ATOM     27  C   UNL     1       0.781  46.790  58.213  1.00  0.00     0.065 A 
ATOM     28  C   UNL     1      -1.579  47.245  58.065  1.00  0.00     0.030 A 
ATOM     29  C   UNL     1       0.900  47.445  59.436  1.00  0.00     0.028 A 
ATOM     30  C   UNL     1      -1.500  47.914  59.302  1.00  0.00     0.002 A 
ATOM     31  C   UNL     1      -0.265  48.013  59.985  1.00  0.00     0.002 A 
ATOM     32  H   UNL     1       2.751  46.096  57.723  1.00  0.00     0.168 HD
ENDBRANCH   4  23
TORSDOF 3
ENDMDL
MODEL 2
REMARK VINA RESULT:    -9.837      3.577      8.868
REMARK INTER + INTRA:         -11.709
REMARK INTER:                 -11.418
REMARK INTRA:                  -0.292
REMARK UNBOUND:                -0.147
REMARK SMILES O=c1[nH]c(CN2CCC(c3nc4ccccc4[nH]3)CC2)nc2c1oc1ccccc12
REMARK SMILES IDX 6 1 7 2 8 3 9 4 19 5 20 6 5 7 4 8 1 9 2 10 3 11 23 12 24 13
REMARK SMILES IDX 22 14 21 15 25 16 30 17 26 18 29 19 27 20 28 21 10 23 11 24
REMARK SMILES IDX 18 25 12 26 17 27 13 28 16 29 14 30 15 31
REMARK H PARENT 3 22 18 32
ROOT
ATOM      1  N   UNL     1       1.775  44.394  53.558  1.00  0.00    -0.296 NA
ATOM      2  C   UNL     1       2.666  43.517  52.770  1.00  0.00     0.086 C 
ATOM      3  C   UNL     1       4.143  43.876  53.027  1.00  0.00     0.027 C 
ATOM      4  C   UNL     1       4.316  45.331  53.506  1.00  0.00     0.058 C 
ATOM      5  C   UNL     1       3.301  46.255  52.811  1.00  0.00     0.027 C 
ATOM      6  C   UNL     1       1.849  45.789  53.063  1.00  0.00     0.086 C 
ENDROOT
BRANCH   1   7
ATOM      7  C   UNL     1       0.381  43.911  53.523  1.00  0.00     0.159 C 
BRANCH   7   8
ATOM      8  C   UNL     1      -0.462  44.695  54.486  1.00  0.00     0.124 A 
ATOM      9  O   UNL     1      -3.852  45.592  54.998  1.00  0.00    -0.265 OA
ATOM     10  C   UNL     1      -2.610  45.493  55.180  1.00  0.00     0.294 A 
ATOM     11  N   UNL     1      -1.823  44.808  54.295  1.00  0.00    -0.306 N 
ATOM     12  C   UNL     1      -2.001  46.071  56.283  1.00  0.00     0.218 A 
ATOM     13  O   UNL     1      -2.537  46.767  57.267  1.00  0.00    -0.449 OA
ATOM     14  C   UNL     1      -0.652  45.940  56.450  1.00  0.00     0.124 A 
ATOM     15  N   UNL     1       0.131  45.264  55.580  1.00  0.00    -0.229 NA
ATOM     16  C   UNL     1      -1.541  47.091  58.074  1.00  0.00     0.137 A 
ATOM     17  C   UNL     1      -0.338  46.597  57.608  1.00  0.00     0.047 A 
ATOM     18  C   UNL     1      -1.609  47.826  59.255  1.00  0.00     0.048 A 
ATOM     19  C   UNL     1       0.863  46.800  58.282  1.00  0.00     0.014 A 
ATOM     20  C   UNL     1      -0.411  48.051  59.962  1.00  0.00     0.004 A 
ATOM     21  C   UNL     1       0.818  47.541  59.478  1.00  0.00     0.001 A 
ATOM     22  H   UNL     1      -2.269  44.360  53.462  1.00  0.00     0.171 HD
ENDBRANCH   7   8
ENDBRANCH   1   7
BRANCH   4  23
ATOM     23  C   UNL     1       5.729  45.796  53.283  1.00  0.00     0.110 A 
ATOM     24  N   UNL     1       6.374  45.685  52.089  1.00  0.00    -0.233 NA
ATOM     25  N   UNL     1       6.507  46.295  54.277  1.00  0.00    -0.342 N 
ATOM     26  C   UNL     1       7.601  46.158  52.369  1.00  0.00     0.089 A 
ATOM     27  C   UNL     1       7.684  46.521  53.680  1.00  0.00     0.065 A 
ATOM     28  C   UNL     1       8.686  46.279  51.504  1.00  0.00     0.030 A 
ATOM     29  C   UNL     1       8.853  47.033  54.237  1.00  0.00     0.028 A 
ATOM     30  C   UNL     1       9.886  46.795  52.028  1.00  0.00     0.002 A 
ATOM     31  C   UNL     1       9.970  47.171  53.390  1.00  0.00     0.002 A 
ATOM     32  H   UNL     1       6.253  46.455  55.277  1.00  0.00     0.168 HD
ENDBRANCH   4  23
TORSDOF 3
ENDMDL
MODEL 3
REMARK VINA RESULT:    -9.692      1.440      1.961
REMARK INTER + INTRA:         -11.538
REMARK INTER:                 -10.944
REMARK INTRA:                  -0.594
REMARK UNBOUND:                -0.147
REMARK SMILES O=c1[nH]c(CN2CCC(c3nc4ccccc4[nH]3)CC2)nc2c1oc1ccccc12
REMARK SMILES IDX 6 1 7 2 8 3 9 4 19 5 20 6 5 7 4 8 1 9 2 10 3 11 23 12 24 13
REMARK SMILES IDX 22 14 21 15 25 16 30 17 26 18 29 19 27 20 28 21 10 23 11 24
REMARK SMILES IDX 18 25 12 26 17 27 13 28 16 29 14 30 15 31
REMARK H PARENT 3 22 18 32
ROOT
ATOM      1  N   UNL     1       3.490  43.738  51.562  1.00  0.00    -0.296 NA
ATOM      2  C   UNL     1       2.448  44.708  51.167  1.00  0.00     0.086 C 
ATOM      3  C   UNL     1       1.746  45.284  52.412  1.00  0.00     0.027 C 
ATOM      4  C   UNL     1       1.847  44.342  53.628  1.00  0.00     0.058 C 
ATOM      5  C   UNL     1       1.767  42.872  53.183  1.00  0.00     0.027 C 
ATOM      6  C   UNL     1       2.875  42.531  52.162  1.00  0.00     0.086 C 
ENDROOT
BRANCH   1   7
ATOM      7  C   UNL     1       4.338  43.366  50.413  1.00  0.00     0.159 C 
BRANCH   7   8
ATOM      8  C   UNL     1       5.706  43.966  50.563  1.00  0.00     0.124 A 
ATOM      9  O   UNL     1       8.787  44.136  48.821  1.00  0.00    -0.265 OA
ATOM     10  C   UNL     1       7.912  44.327  49.706  1.00  0.00     0.294 A 
ATOM     11  N   UNL     1       6.670  43.762  49.600  1.00  0.00    -0.306 N 
ATOM     12  C   UNL     1       8.175  45.120  50.812  1.00  0.00     0.218 A 
ATOM     13  O   UNL     1       9.277  45.770  51.134  1.00  0.00    -0.449 OA
ATOM     14  C   UNL     1       7.200  45.309  51.750  1.00  0.00     0.124 A 
ATOM     15  N   UNL     1       5.971  44.754  51.649  1.00  0.00    -0.229 NA
ATOM     16  C   UNL     1       9.023  46.381  52.278  1.00  0.00     0.137 A 
ATOM     17  C   UNL     1       7.735  46.125  52.708  1.00  0.00     0.047 A 
ATOM     18  C   UNL     1       9.881  47.193  53.017  1.00  0.00     0.048 A 
ATOM     19  C   UNL     1       7.223  46.657  53.888  1.00  0.00     0.014 A 
ATOM     20  C   UNL     1       9.393  47.747  54.217  1.00  0.00     0.004 A 
ATOM     21  C   UNL     1       8.072  47.480  54.650  1.00  0.00     0.001 A 
ATOM     22  H   UNL     1       6.454  43.168  48.766  1.00  0.00     0.171 HD
ENDBRANCH   7   8
ENDBRANCH   1   7
BRANCH   4  23
ATOM     23  C   UNL     1       0.784  44.671  54.641  1.00  0.00     0.110 A 
ATOM     24  N   UNL     1      -0.384  43.979  54.752  1.00  0.00    -0.233 NA
ATOM     25  N   UNL     1       0.866  45.736  55.478  1.00  0.00    -0.342 N 
ATOM     26  C   UNL     1      -1.035  44.648  55.719  1.00  0.00     0.089 A 
ATOM     27  C   UNL     1      -0.289  45.703  56.154  1.00  0.00     0.065 A 
ATOM     28  C   UNL     1      -2.295  44.374  56.245  1.00  0.00     0.030 A 
ATOM     29  C   UNL     1      -0.737  46.571  57.146  1.00  0.00     0.028 A 
ATOM     30  C   UNL     1      -2.783  45.228  57.254  1.00  0.00     0.002 A 
ATOM     31  C   UNL     1      -2.007  46.322  57.703  1.00  0.00     0.002 A 
ATOM     32  H   UNL     1       1.643  46.428  55.568  1.00  0.00     0.168 HD
ENDBRANCH   4  23
TORSDOF 3
ENDMDL
MODEL 4
REMARK VINA RESULT:    -9.609      3.861      8.915
REMARK INTER + INTRA:         -11.441
REMARK INTER:                 -10.908
REMARK INTRA:                  -0.533
REMARK UNBOUND:                -0.147
REMARK SMILES O=c1[nH]c(CN2CCC(c3nc4ccccc4[nH]3)CC2)nc2c1oc1ccccc12
REMARK SMILES IDX 6 1 7 2 8 3 9 4 19 5 20 6 5 7 4 8 1 9 2 10 3 11 23 12 24 13
REMARK SMILES IDX 22 14 21 15 25 16 30 17 26 18 29 19 27 20 28 21 10 23 11 24
REMARK SMILES IDX 18 25 12 26 17 27 13 28 16 29 14 30 15 31
REMARK H PARENT 3 22 18 32
ROOT
ATOM      1  N   UNL     1       2.246  43.815  51.504  1.00  0.00    -0.296 NA
ATOM      2  C   UNL     1       3.397  42.935  51.214  1.00  0.00     0.086 C 
ATOM      3  C   UNL     1       4.669  43.463  51.905  1.00  0.00     0.027 C 
ATOM      4  C   UNL     1       4.594  44.977  52.188  1.00  0.00     0.058 C 
ATOM      5  C   UNL     1       3.851  45.704  51.055  1.00  0.00     0.027 C 
ATOM      6  C   UNL     1       2.427  45.137  50.859  1.00  0.00     0.086 C 
ENDROOT
BRANCH   1   7
ATOM      7  C   UNL     1       0.979  43.199  51.065  1.00  0.00     0.159 C 
BRANCH   7   8
ATOM      8  C   UNL     1      -0.187  43.939  51.655  1.00  0.00     0.124 A 
ATOM      9  O   UNL     1      -2.998  45.826  50.610  1.00  0.00    -0.265 OA
ATOM     10  C   UNL     1      -2.176  45.238  51.361  1.00  0.00     0.294 A 
ATOM     11  N   UNL     1      -1.092  44.585  50.841  1.00  0.00    -0.306 N 
ATOM     12  C   UNL     1      -2.345  45.228  52.737  1.00  0.00     0.218 A 
ATOM     13  O   UNL     1      -3.300  45.772  53.467  1.00  0.00    -0.449 OA
ATOM     14  C   UNL     1      -1.437  44.576  53.520  1.00  0.00     0.124 A 
ATOM     15  N   UNL     1      -0.364  43.929  53.012  1.00  0.00    -0.229 NA
ATOM     16  C   UNL     1      -3.015  45.477  54.724  1.00  0.00     0.137 A 
ATOM     17  C   UNL     1      -1.856  44.729  54.813  1.00  0.00     0.047 A 
ATOM     18  C   UNL     1      -3.732  45.832  55.864  1.00  0.00     0.048 A 
ATOM     19  C   UNL     1      -1.344  44.289  56.030  1.00  0.00     0.014 A 
ATOM     20  C   UNL     1      -3.240  45.403  57.113  1.00  0.00     0.004 A 
ATOM     21  C   UNL     1      -2.053  44.636  57.195  1.00  0.00     0.001 A 
ATOM     22  H   UNL     1      -0.955  44.577  49.804  1.00  0.00     0.171 HD
ENDBRANCH   7   8
ENDBRANCH   1   7
BRANCH   4  23
ATOM     23  C   UNL     1       5.972  45.544  52.397  1.00  0.00     0.110 A 
ATOM     24  N   UNL     1       6.953  45.494  51.454  1.00  0.00    -0.233 NA
ATOM     25  N   UNL     1       6.377  46.085  53.574  1.00  0.00    -0.342 N 
ATOM     26  C   UNL     1       8.002  46.049  52.087  1.00  0.00     0.089 A 
ATOM     27  C   UNL     1       7.659  46.401  53.358  1.00  0.00     0.065 A 
ATOM     28  C   UNL     1       9.286  46.257  51.588  1.00  0.00     0.030 A 
ATOM     29  C   UNL     1       8.567  46.987  54.237  1.00  0.00     0.028 A 
ATOM     30  C   UNL     1      10.232  46.851  52.445  1.00  0.00     0.002 A 
ATOM     31  C   UNL     1       9.874  47.215  53.765  1.00  0.00     0.002 A 
ATOM     32  H   UNL     1       5.822  46.213  54.450  1.00  0.00     0.168 HD
ENDBRANCH   4  23
TORSDOF 3
ENDMDL
MODEL 5
REMARK VINA RESULT:    -9.272      3.161      5.976
REMARK INTER + INTRA:         -11.044
REMARK INTER:                 -10.628
REMARK INTRA:                  -0.417
REMARK UNBOUND:                -0.147
REMARK SMILES O=c1[nH]c(CN2CCC(c3nc4ccccc4[nH]3)CC2)nc2c1oc1ccccc12
REMARK SMILES IDX 6 1 7 2 8 3 9 4 19 5 20 6 5 7 4 8 1 9 2 10 3 11 23 12 24 13
REMARK SMILES IDX 22 14 21 15 25 16 30 17 26 18 29 19 27 20 28 21 10 23 11 24
REMARK SMILES IDX 18 25 12 26 17 27 13 28 16 29 14 30 15 31
REMARK H PARENT 3 22 18 32
ROOT
ATOM      1  N   UNL     1       2.758  45.341  53.928  1.00  0.00    -0.296 NA
ATOM      2  C   UNL     1       1.740  44.727  54.806  1.00  0.00     0.086 C 
ATOM      3  C   UNL     1       0.850  43.757  54.005  1.00  0.00     0.027 C 
ATOM      4  C   UNL     1       0.822  44.096  52.501  1.00  0.00     0.058 C 
ATOM      5  C   UNL     1       0.866  45.619  52.288  1.00  0.00     0.027 C 
ATOM      6  C   UNL     1       2.118  46.245  52.944  1.00  0.00     0.086 C 
ENDROOT
BRANCH   1   7
ATOM      7  C   UNL     1       3.770  46.073  54.714  1.00  0.00     0.159 C 
BRANCH   7   8
ATOM      8  C   UNL     1       5.050  46.182  53.936  1.00  0.00     0.124 A 
ATOM      9  O   UNL     1       8.142  47.908  54.050  1.00  0.00    -0.265 OA
ATOM     10  C   UNL     1       7.234  47.124  53.668  1.00  0.00     0.294 A 
ATOM     11  N   UNL     1       6.049  47.037  54.348  1.00  0.00    -0.306 N 
ATOM     12  C   UNL     1       7.405  46.323  52.550  1.00  0.00     0.218 A 
ATOM     13  O   UNL     1       8.444  46.223  51.742  1.00  0.00    -0.449 OA
ATOM     14  C   UNL     1       6.400  45.482  52.167  1.00  0.00     0.124 A 
ATOM     15  N   UNL     1       5.228  45.390  52.835  1.00  0.00    -0.229 NA
ATOM     16  C   UNL     1       8.117  45.320  50.834  1.00  0.00     0.137 A 
ATOM     17  C   UNL     1       6.846  44.823  51.054  1.00  0.00     0.047 A 
ATOM     18  C   UNL     1       8.891  44.870  49.766  1.00  0.00     0.048 A 
ATOM     19  C   UNL     1       6.271  43.856  50.235  1.00  0.00     0.014 A 
ATOM     20  C   UNL     1       8.337  43.891  48.918  1.00  0.00     0.004 A 
ATOM     21  C   UNL     1       7.035  43.387  49.151  1.00  0.00     0.001 A 
ATOM     22  H   UNL     1       5.909  47.629  55.198  1.00  0.00     0.171 HD
ENDBRANCH   7   8
ENDBRANCH   1   7
BRANCH   4  23
ATOM     23  C   UNL     1      -0.382  43.481  51.842  1.00  0.00     0.110 A 
ATOM     24  N   UNL     1      -1.111  42.477  52.404  1.00  0.00    -0.233 NA
ATOM     25  N   UNL     1      -0.797  43.822  50.596  1.00  0.00    -0.342 N 
ATOM     26  C   UNL     1      -2.026  42.209  51.456  1.00  0.00     0.089 A 
ATOM     27  C   UNL     1      -1.838  43.012  50.371  1.00  0.00     0.065 A 
ATOM     28  C   UNL     1      -3.042  41.256  51.497  1.00  0.00     0.030 A 
ATOM     29  C   UNL     1      -2.645  42.931  49.238  1.00  0.00     0.028 A 
ATOM     30  C   UNL     1      -3.881  41.146  50.372  1.00  0.00     0.002 A 
ATOM     31  C   UNL     1      -3.683  41.980  49.246  1.00  0.00     0.002 A 
ATOM     32  H   UNL     1      -0.393  44.542  49.955  1.00  0.00     0.168 HD
ENDBRANCH   4  23
TORSDOF 3
ENDMDL
