MODEL 1
REMARK VINA RESULT:    -9.576      0.000      0.000
REMARK INTER + INTRA:         -12.656
REMARK INTER:                 -12.376
REMARK INTRA:                  -0.281
REMARK UNBOUND:                -0.281
REMARK SMILES O=C(c1ccc2c(c1)[nH]c(=O)n2C1CCCC1)N1CC[C@@H](Oc2cccc(F)c2)C1
REMARK SMILES IDX 18 1 19 2 20 3 21 4 30 5 2 6 1 7 3 8 4 9 8 10 5 11 7 12 6 13
REMARK SMILES IDX 9 14 12 15 10 16 11 17 13 19 14 20 17 21 15 22 16 23 22 24
REMARK SMILES IDX 23 25 24 26 29 27 25 28 27 29 26 30 28 31
REMARK H PARENT 9 18
ROOT
ATOM      1  N   UNL     1       5.070  42.226  50.198  1.00  0.00    -0.335 N 
ATOM      2  C   UNL     1       5.788  41.912  48.975  1.00  0.00     0.124 C 
ATOM      3  C   UNL     1       6.863  42.982  48.836  1.00  0.00     0.068 C 
ATOM      4  C   UNL     1       6.978  43.647  50.209  1.00  0.00     0.194 C 
ATOM      5  C   UNL     1       5.663  43.339  50.925  1.00  0.00     0.165 C 
ENDROOT
BRANCH   1   6
ATOM      6  C   UNL     1       3.780  41.669  50.506  1.00  0.00     0.254 C 
ATOM      7  O   UNL     1       3.513  40.488  50.155  1.00  0.00    -0.269 OA
BRANCH   6   8
ATOM      8  C   UNL     1       2.752  42.449  51.226  1.00  0.00     0.042 A 
ATOM      9  C   UNL     1       2.871  42.654  52.624  1.00  0.00     0.016 A 
ATOM     10  C   UNL     1       1.684  43.045  50.523  1.00  0.00     0.042 A 
ATOM     11  C   UNL     1       1.910  43.405  53.326  1.00  0.00     0.029 A 
ATOM     12  C   UNL     1       0.746  43.770  51.252  1.00  0.00     0.067 A 
ATOM     13  C   UNL     1       0.834  43.932  52.608  1.00  0.00     0.069 A 
ATOM     14  N   UNL     1      -0.304  44.457  50.781  1.00  0.00    -0.306 N 
ATOM     15  N   UNL     1      -0.191  44.707  53.042  1.00  0.00    -0.289 N 
ATOM     16  C   UNL     1      -0.839  45.033  51.882  1.00  0.00     0.326 A 
ATOM     17  O   UNL     1      -1.815  45.826  51.812  1.00  0.00    -0.248 OA
ATOM     18  H   UNL     1      -0.609  44.563  49.788  1.00  0.00     0.171 HD
BRANCH  15  19
ATOM     19  C   UNL     1      -0.418  45.178  54.429  1.00  0.00     0.092 C 
ATOM     20  C   UNL     1      -1.200  44.203  55.308  1.00  0.00     0.025 C 
ATOM     21  C   UNL     1       0.896  45.390  55.194  1.00  0.00     0.025 C 
ATOM     22  C   UNL     1      -0.842  44.600  56.727  1.00  0.00     0.002 C 
ATOM     23  C   UNL     1       0.610  45.052  56.659  1.00  0.00     0.002 C 
ENDBRANCH  15  19
ENDBRANCH   6   8
ENDBRANCH   1   6
BRANCH   4  24
ATOM     24  O   UNL     1       7.178  45.055  50.061  1.00  0.00    -0.488 OA
BRANCH  24  25
ATOM     25  C   UNL     1       7.620  45.924  51.072  1.00  0.00     0.122 A 
ATOM     26  C   UNL     1       6.664  46.693  51.751  1.00  0.00     0.046 A 
ATOM     27  C   UNL     1       8.979  46.052  51.427  1.00  0.00     0.085 A 
ATOM     28  C   UNL     1       7.049  47.571  52.770  1.00  0.00     0.007 A 
ATOM     29  C   UNL     1       9.361  46.928  52.449  1.00  0.00     0.126 A 
ATOM     30  C   UNL     1       8.396  47.687  53.120  1.00  0.00     0.039 A 
ATOM     31  F   UNL     1      10.667  47.045  52.790  1.00  0.00    -0.207 F 
ENDBRANCH  24  25
ENDBRANCH   4  24
TORSDOF 5
ENDMDL
MODEL 2
REMARK VINA RESULT:    -9.393      2.815      8.169
REMARK INTER + INTRA:         -12.419
REMARK INTER:                 -12.409
REMARK INTRA:                  -0.010
REMARK UNBOUND:                -0.281
REMARK SMILES O=C(c1ccc2c(c1)[nH]c(=O)n2C1CCCC1)N1CC[C@@H](Oc2cccc(F)c2)C1
REMARK SMILES IDX 18 1 19 2 20 3 21 4 30 5 2 6 1 7 3 8 4 9 8 10 5 11 7 12 6 13
REMARK SMILES IDX 9 14 12 15 10 16 11 17 13 19 14 20 17 21 15 22 16 23 22 24
REMARK SMILES IDX 23 25 24 26 29 27 25 28 27 29 26 30 28 31
REMARK H PARENT 9 18
ROOT
ATOM      1  N   UNL     1       1.718  43.977  52.756  1.00  0.00    -0.335 N 
ATOM      2  C   UNL     1       0.415  44.086  52.124  1.00  0.00     0.124 C 
ATOM      3  C   UNL     1      -0.519  44.646  53.190  1.00  0.00     0.068 C 
ATOM      4  C   UNL     1       0.383  45.216  54.286  1.00  0.00     0.194 C 
ATOM      5  C   UNL     1       1.735  44.527  54.103  1.00  0.00     0.165 C 
ENDROOT
BRANCH   1   6
ATOM      6  C   UNL     1       2.784  43.182  52.206  1.00  0.00     0.254 C 
ATOM      7  O   UNL     1       2.615  41.942  52.047  1.00  0.00    -0.269 OA
BRANCH   6   8
ATOM      8  C   UNL     1       4.077  43.781  51.820  1.00  0.00     0.042 A 
ATOM      9  C   UNL     1       4.604  44.867  52.565  1.00  0.00     0.016 A 
ATOM     10  C   UNL     1       4.825  43.242  50.752  1.00  0.00     0.042 A 
ATOM     11  C   UNL     1       5.841  45.443  52.222  1.00  0.00     0.029 A 
ATOM     12  C   UNL     1       6.038  43.845  50.433  1.00  0.00     0.067 A 
ATOM     13  C   UNL     1       6.527  44.922  51.122  1.00  0.00     0.069 A 
ATOM     14  N   UNL     1       6.922  43.463  49.502  1.00  0.00    -0.306 N 
ATOM     15  N   UNL     1       7.735  45.275  50.617  1.00  0.00    -0.289 N 
ATOM     16  C   UNL     1       7.950  44.331  49.651  1.00  0.00     0.326 A 
ATOM     17  O   UNL     1       9.011  44.229  48.981  1.00  0.00    -0.248 OA
ATOM     18  H   UNL     1       6.856  42.653  48.847  1.00  0.00     0.171 HD
BRANCH  15  19
ATOM     19  C   UNL     1       8.628  46.343  51.126  1.00  0.00     0.092 C 
ATOM     20  C   UNL     1       7.936  47.380  52.010  1.00  0.00     0.025 C 
ATOM     21  C   UNL     1       9.748  45.789  52.018  1.00  0.00     0.025 C 
ATOM     22  C   UNL     1       9.058  47.996  52.823  1.00  0.00     0.002 C 
ATOM     23  C   UNL     1      10.037  46.859  53.074  1.00  0.00     0.002 C 
ENDBRANCH  15  19
ENDBRANCH   6   8
ENDBRANCH   1   6
BRANCH   4  24
ATOM     24  O   UNL     1      -0.174  44.945  55.575  1.00  0.00    -0.488 OA
BRANCH  24  25
ATOM     25  C   UNL     1      -0.158  45.826  56.668  1.00  0.00     0.122 A 
ATOM     26  C   UNL     1      -1.308  46.586  56.925  1.00  0.00     0.046 A 
ATOM     27  C   UNL     1       0.963  45.974  57.512  1.00  0.00     0.085 A 
ATOM     28  C   UNL     1      -1.349  47.475  58.004  1.00  0.00     0.007 A 
ATOM     29  C   UNL     1       0.918  46.862  58.593  1.00  0.00     0.126 A 
ATOM     30  C   UNL     1      -0.236  47.611  58.839  1.00  0.00     0.039 A 
ATOM     31  F   UNL     1       1.996  46.998  59.403  1.00  0.00    -0.207 F 
ENDBRANCH  24  25
ENDBRANCH   4  24
TORSDOF 5
ENDMDL
MODEL 3
REMARK VINA RESULT:    -9.279      2.642      4.627
REMARK INTER + INTRA:         -12.273
REMARK INTER:                 -12.637
REMARK INTRA:                   0.365
REMARK UNBOUND:                -0.281
REMARK SMILES O=C(c1ccc2c(c1)[nH]c(=O)n2C1CCCC1)N1CC[C@@H](Oc2cccc(F)c2)C1
REMARK SMILES IDX 18 1 19 2 20 3 21 4 30 5 2 6 1 7 3 8 4 9 8 10 5 11 7 12 6 13
REMARK SMILES IDX 9 14 12 15 10 16 11 17 13 19 14 20 17 21 15 22 16 23 22 24
REMARK SMILES IDX 23 25 24 26 29 27 25 28 27 29 26 30 28 31
REMARK H PARENT 9 18
ROOT
ATOM      1  N   UNL     1       7.444  46.629  52.843  1.00  0.00    -0.335 N 
ATOM      2  C   UNL     1       8.873  46.389  52.952  1.00  0.00     0.124 C 
ATOM      3  C   UNL     1       9.293  45.770  51.624  1.00  0.00     0.068 C 
ATOM      4  C   UNL     1       8.150  46.049  50.647  1.00  0.00     0.194 C 
ATOM      5  C   UNL     1       6.925  46.327  51.519  1.00  0.00     0.165 C 
ENDROOT
BRANCH   1   6
ATOM      6  C   UNL     1       6.610  46.880  53.989  1.00  0.00     0.254 C 
ATOM      7  O   UNL     1       7.072  47.537  54.961  1.00  0.00    -0.269 OA
BRANCH   6   8
ATOM      8  C   UNL     1       5.220  46.387  54.058  1.00  0.00     0.042 A 
ATOM      9  C   UNL     1       4.758  45.734  55.229  1.00  0.00     0.016 A 
ATOM     10  C   UNL     1       4.326  46.614  52.989  1.00  0.00     0.042 A 
ATOM     11  C   UNL     1       3.433  45.270  55.320  1.00  0.00     0.029 A 
ATOM     12  C   UNL     1       3.027  46.129  53.109  1.00  0.00     0.067 A 
ATOM     13  C   UNL     1       2.593  45.459  54.220  1.00  0.00     0.069 A 
ATOM     14  N   UNL     1       2.014  46.281  52.246  1.00  0.00    -0.306 N 
ATOM     15  N   UNL     1       1.283  45.137  54.074  1.00  0.00    -0.289 N 
ATOM     16  C   UNL     1       0.965  45.693  52.865  1.00  0.00     0.326 A 
ATOM     17  O   UNL     1      -0.194  45.707  52.373  1.00  0.00    -0.248 OA
ATOM     18  H   UNL     1       2.020  46.782  51.330  1.00  0.00     0.171 HD
BRANCH  15  19
ATOM     19  C   UNL     1       0.419  44.472  55.078  1.00  0.00     0.092 C 
ATOM     20  C   UNL     1      -0.265  45.425  56.057  1.00  0.00     0.025 C 
ATOM     21  C   UNL     1      -0.747  43.711  54.430  1.00  0.00     0.025 C 
ATOM     22  C   UNL     1      -1.454  44.644  56.580  1.00  0.00     0.002 C 
ATOM     23  C   UNL     1      -1.923  43.798  55.406  1.00  0.00     0.002 C 
ENDBRANCH  15  19
ENDBRANCH   6   8
ENDBRANCH   1   6
BRANCH   4  24
ATOM     24  O   UNL     1       7.942  44.920  49.795  1.00  0.00    -0.488 OA
BRANCH  24  25
ATOM     25  C   UNL     1       7.002  43.900  50.013  1.00  0.00     0.122 A 
ATOM     26  C   UNL     1       7.296  42.614  49.538  1.00  0.00     0.046 A 
ATOM     27  C   UNL     1       5.780  44.118  50.683  1.00  0.00     0.085 A 
ATOM     28  C   UNL     1       6.398  41.559  49.732  1.00  0.00     0.007 A 
ATOM     29  C   UNL     1       4.884  43.061  50.879  1.00  0.00     0.126 A 
ATOM     30  C   UNL     1       5.194  41.782  50.404  1.00  0.00     0.039 A 
ATOM     31  F   UNL     1       3.714  43.275  51.528  1.00  0.00    -0.207 F 
ENDBRANCH  24  25
ENDBRANCH   4  24
TORSDOF 5
ENDMDL
MODEL 4
REMARK VINA RESULT:    -9.245      2.589      4.223
REMARK INTER + INTRA:         -12.229
REMARK INTER:                 -11.733
REMARK INTRA:                  -0.496
REMARK UNBOUND:                -0.281
REMARK SMILES O=C(c1ccc2c(c1)[nH]c(=O)n2C1CCCC1)N1CC[C@@H](Oc2cccc(F)c2)C1
REMARK SMILES IDX 18 1 19 2 20 3 21 4 30 5 2 6 1 7 3 8 4 9 8 10 5 11 7 12 6 13
REMARK SMILES IDX 9 14 12 15 10 16 11 17 13 19 14 20 17 21 15 22 16 23 22 24
REMARK SMILES IDX 23 25 24 26 29 27 25 28 27 29 26 30 28 31
REMARK H PARENT 9 18
ROOT
ATOM      1  N   UNL     1       4.256  44.986  53.333  1.00  0.00    -0.335 N 
ATOM      2  C   UNL     1       4.972  44.798  54.583  1.00  0.00     0.124 C 
ATOM      3  C   UNL     1       5.834  46.042  54.761  1.00  0.00     0.068 C 
ATOM      4  C   UNL     1       5.273  47.087  53.795  1.00  0.00     0.194 C 
ATOM      5  C   UNL     1       4.491  46.296  52.745  1.00  0.00     0.165 C 
ENDROOT
BRANCH   1   6
ATOM      6  C   UNL     1       3.609  43.905  52.638  1.00  0.00     0.254 C 
ATOM      7  O   UNL     1       4.309  43.017  52.081  1.00  0.00    -0.269 OA
BRANCH   6   8
ATOM      8  C   UNL     1       2.137  43.807  52.560  1.00  0.00     0.042 A 
ATOM      9  C   UNL     1       1.514  43.507  51.321  1.00  0.00     0.016 A 
ATOM     10  C   UNL     1       1.348  43.948  53.720  1.00  0.00     0.042 A 
ATOM     11  C   UNL     1       0.114  43.395  51.228  1.00  0.00     0.029 A 
ATOM     12  C   UNL     1      -0.034  43.843  53.588  1.00  0.00     0.067 A 
ATOM     13  C   UNL     1      -0.640  43.599  52.387  1.00  0.00     0.069 A 
ATOM     14  N   UNL     1      -0.955  43.889  54.560  1.00  0.00    -0.306 N 
ATOM     15  N   UNL     1      -1.983  43.515  52.562  1.00  0.00    -0.289 N 
ATOM     16  C   UNL     1      -2.123  43.664  53.915  1.00  0.00     0.326 A 
ATOM     17  O   UNL     1      -3.216  43.562  54.532  1.00  0.00    -0.248 OA
ATOM     18  H   UNL     1      -0.802  44.018  55.585  1.00  0.00     0.171 HD
BRANCH  15  19
ATOM     19  C   UNL     1      -2.992  43.192  51.527  1.00  0.00     0.092 C 
ATOM     20  C   UNL     1      -2.918  44.065  50.275  1.00  0.00     0.025 C 
ATOM     21  C   UNL     1      -2.835  41.763  50.987  1.00  0.00     0.025 C 
ATOM     22  C   UNL     1      -3.606  43.247  49.200  1.00  0.00     0.002 C 
ATOM     23  C   UNL     1      -3.258  41.800  49.517  1.00  0.00     0.002 C 
ENDBRANCH  15  19
ENDBRANCH   6   8
ENDBRANCH   1   6
BRANCH   4  24
ATOM     24  O   UNL     1       6.338  47.834  53.202  1.00  0.00    -0.488 OA
BRANCH  24  25
ATOM     25  C   UNL     1       7.673  47.409  53.104  1.00  0.00     0.122 A 
ATOM     26  C   UNL     1       8.085  46.786  51.917  1.00  0.00     0.046 A 
ATOM     27  C   UNL     1       8.607  47.582  54.146  1.00  0.00     0.085 A 
ATOM     28  C   UNL     1       9.405  46.347  51.763  1.00  0.00     0.007 A 
ATOM     29  C   UNL     1       9.928  47.146  53.988  1.00  0.00     0.126 A 
ATOM     30  C   UNL     1      10.326  46.529  52.798  1.00  0.00     0.039 A 
ATOM     31  F   UNL     1      10.823  47.318  54.991  1.00  0.00    -0.207 F 
ENDBRANCH  24  25
ENDBRANCH   4  24
TORSDOF 5
ENDMDL
MODEL 5
REMARK VINA RESULT:    -9.175      2.567      3.445
REMARK INTER + INTRA:         -12.138
REMARK INTER:                 -11.556
REMARK INTRA:                  -0.582
REMARK UNBOUND:                -0.281
REMARK SMILES O=C(c1ccc2c(c1)[nH]c(=O)n2C1CCCC1)N1CC[C@@H](Oc2cccc(F)c2)C1
REMARK SMILES IDX 18 1 19 2 20 3 21 4 30 5 2 6 1 7 3 8 4 9 8 10 5 11 7 12 6 13
REMARK SMILES IDX 9 14 12 15 10 16 11 17 13 19 14 20 17 21 15 22 16 23 22 24
REMARK SMILES IDX 23 25 24 26 29 27 25 28 27 29 26 30 28 31
REMARK H PARENT 9 18
ROOT
ATOM      1  N   UNL     1       4.266  45.179  53.640  1.00  0.00    -0.335 N 
ATOM      2  C   UNL     1       5.145  44.931  54.770  1.00  0.00     0.124 C 
ATOM      3  C   UNL     1       6.119  46.102  54.804  1.00  0.00     0.068 C 
ATOM      4  C   UNL     1       5.504  47.190  53.923  1.00  0.00     0.194 C 
ATOM      5  C   UNL     1       4.513  46.467  53.011  1.00  0.00     0.165 C 
ENDROOT
BRANCH   1   6
ATOM      6  C   UNL     1       3.438  44.154  53.062  1.00  0.00     0.254 C 
ATOM      7  O   UNL     1       3.949  43.312  52.275  1.00  0.00    -0.269 OA
BRANCH   6   8
ATOM      8  C   UNL     1       1.996  44.060  53.367  1.00  0.00     0.042 A 
ATOM      9  C   UNL     1       1.505  44.527  54.614  1.00  0.00     0.016 A 
ATOM     10  C   UNL     1       1.091  43.567  52.404  1.00  0.00     0.042 A 
ATOM     11  C   UNL     1       0.133  44.461  54.918  1.00  0.00     0.029 A 
ATOM     12  C   UNL     1      -0.257  43.503  52.745  1.00  0.00     0.067 A 
ATOM     13  C   UNL     1      -0.727  43.911  53.963  1.00  0.00     0.069 A 
ATOM     14  N   UNL     1      -1.281  43.124  51.968  1.00  0.00    -0.306 N 
ATOM     15  N   UNL     1      -2.075  43.768  54.003  1.00  0.00    -0.289 N 
ATOM     16  C   UNL     1      -2.371  43.317  52.746  1.00  0.00     0.326 A 
ATOM     17  O   UNL     1      -3.539  43.131  52.315  1.00  0.00    -0.248 OA
ATOM     18  H   UNL     1      -1.249  42.802  50.976  1.00  0.00     0.171 HD
BRANCH  15  19
ATOM     19  C   UNL     1      -2.974  44.161  55.114  1.00  0.00     0.092 C 
ATOM     20  C   UNL     1      -2.533  43.666  56.491  1.00  0.00     0.025 C 
ATOM     21  C   UNL     1      -3.060  45.685  55.282  1.00  0.00     0.025 C 
ATOM     22  C   UNL     1      -3.224  44.596  57.468  1.00  0.00     0.002 C 
ATOM     23  C   UNL     1      -3.251  45.952  56.777  1.00  0.00     0.002 C 
ENDBRANCH  15  19
ENDBRANCH   6   8
ENDBRANCH   1   6
BRANCH   4  24
ATOM     24  O   UNL     1       6.523  47.851  53.170  1.00  0.00    -0.488 OA
BRANCH  24  25
ATOM     25  C   UNL     1       7.730  47.269  52.749  1.00  0.00     0.122 A 
ATOM     26  C   UNL     1       8.897  47.569  53.466  1.00  0.00     0.046 A 
ATOM     27  C   UNL     1       7.813  46.402  51.640  1.00  0.00     0.085 A 
ATOM     28  C   UNL     1      10.126  47.013  53.095  1.00  0.00     0.007 A 
ATOM     29  C   UNL     1       9.043  45.844  51.272  1.00  0.00     0.126 A 
ATOM     30  C   UNL     1      10.198  46.149  51.999  1.00  0.00     0.039 A 
ATOM     31  F   UNL     1       9.117  45.008  50.208  1.00  0.00    -0.207 F 
ENDBRANCH  24  25
ENDBRANCH   4  24
TORSDOF 5
ENDMDL
