ligand_25_conformer_3_docked
     RDKit          3D

 34 35  0  0  0  0  0  0  0  0999 V2000
   10.0890   47.4580   54.7440 N   0  0  0  0  0  0  0  0  0  0  0  0
    8.8980   47.0340   54.0830 C   0  0  0  0  0  0  0  0  0  0  0  0
    8.9460   46.5620   52.7680 C   0  0  0  0  0  0  0  0  0  0  0  0
    7.7670   46.1530   52.1430 C   0  0  0  0  0  0  0  0  0  0  0  0
    6.5410   46.2250   52.8250 C   0  0  0  0  0  0  0  0  0  0  0  0
    5.2930   45.7850   52.1550 C   0  0  0  0  0  0  0  0  0  0  0  0
    5.0730   46.1590   50.9700 O   0  0  0  0  0  0  0  0  0  0  0  0
    4.3420   44.9400   52.8290 N   0  0  0  0  0  0  0  0  0  0  0  0
    3.0940   44.5250   52.2460 C   0  0  0  0  0  0  0  0  0  0  0  0
    1.9490   45.3340   52.3520 C   0  0  0  0  0  0  0  0  0  0  0  0
    0.7330   44.9130   51.8110 C   0  0  0  0  0  0  0  0  0  0  0  0
    0.6430   43.6770   51.1690 C   0  0  0  0  0  0  0  0  0  0  0  0
   -0.8870   43.1530   50.4910 Cl  0  0  0  0  0  0  0  0  0  0  0  0
    1.7690   42.8540   51.0740 C   0  0  0  0  0  0  0  0  0  0  0  0
    3.0030   43.2660   51.6200 C   0  0  0  0  0  0  0  0  0  0  0  0
    4.1630   42.4740   51.5430 O   0  0  0  0  0  0  0  0  0  0  0  0
    4.4990   41.5660   50.4920 C   0  0  0  0  0  0  0  0  0  0  0  0
    5.8220   41.9550   49.8320 C   0  0  0  0  0  0  0  0  0  0  0  0
    6.8360   41.1630   50.3380 F   0  0  0  0  0  0  0  0  0  0  0  0
    5.7380   41.7610   48.4660 F   0  0  0  0  0  0  0  0  0  0  0  0
    6.1230   43.2800   50.0840 F   0  0  0  0  0  0  0  0  0  0  0  0
    6.5440   46.6950   54.1510 C   0  0  0  0  0  0  0  0  0  0  0  0
    7.7080   47.0830   54.7380 N   0  0  0  0  0  0  0  0  0  0  0  0
   10.0660   48.2150   55.4640 H   0  0  0  0  0  0  0  0  0  0  0  0
   11.0050   47.0110   54.5140 H   0  0  0  0  0  0  0  0  0  0  0  0
    9.9046   46.5134   52.2306 H   0  0  0  0  0  0  0  0  0  0  0  0
    7.7979   45.7724   51.1114 H   0  0  0  0  0  0  0  0  0  0  0  0
    4.5700   44.5690   53.7770 H   0  0  0  0  0  0  0  0  0  0  0  0
    2.0118   46.3052   52.8647 H   0  0  0  0  0  0  0  0  0  0  0  0
   -0.1557   45.5564   51.8908 H   0  0  0  0  0  0  0  0  0  0  0  0
    1.6925   41.8791   50.5704 H   0  0  0  0  0  0  0  0  0  0  0  0
    4.5895   40.5519   50.9084 H   0  0  0  0  0  0  0  0  0  0  0  0
    3.7049   41.6017   49.7316 H   0  0  0  0  0  0  0  0  0  0  0  0
    5.6013   46.7489   54.7153 H   0  0  0  0  0  0  0  0  0  0  0  0
  1  2  1  0
  2  3  2  0
  3  4  1  0
  4  5  2  0
  5  6  1  0
  6  7  2  0
  6  8  1  0
  8  9  1  0
  9 10  2  0
 10 11  1  0
 11 12  2  0
 12 13  1  0
 12 14  1  0
 14 15  2  0
 15 16  1  0
 16 17  1  0
 17 18  1  0
 18 19  1  0
 18 20  1  0
 18 21  1  0
  5 22  1  0
 22 23  2  0
 23  2  1  0
 15  9  1  0
  1 24  1  0
  1 25  1  0
  3 26  1  0
  4 27  1  0
  8 28  1  0
 10 29  1  0
 11 30  1  0
 14 31  1  0
 17 32  1  0
 17 33  1  0
 22 34  1  0
M  END
>  <meeko>  (1) 
{"is_sidechain": [false], "free_energy": -7.869, "intermolecular_energy": -10.4, "internal_energy": -0.899}

$$$$
ligand_25_conformer_3_docked
     RDKit          3D

 34 35  0  0  0  0  0  0  0  0999 V2000
   -2.0880   42.4350   51.7520 N   0  0  0  0  0  0  0  0  0  0  0  0
   -0.7270   42.8370   51.9010 C   0  0  0  0  0  0  0  0  0  0  0  0
    0.0410   42.3610   52.9670 C   0  0  0  0  0  0  0  0  0  0  0  0
    1.3700   42.7680   53.0900 C   0  0  0  0  0  0  0  0  0  0  0  0
    1.9280   43.6580   52.1570 C   0  0  0  0  0  0  0  0  0  0  0  0
    3.3430   44.0840   52.2930 C   0  0  0  0  0  0  0  0  0  0  0  0
    4.0820   43.4880   53.1240 O   0  0  0  0  0  0  0  0  0  0  0  0
    3.8800   45.1540   51.4920 N   0  0  0  0  0  0  0  0  0  0  0  0
    5.2280   45.6400   51.6190 C   0  0  0  0  0  0  0  0  0  0  0  0
    5.5260   46.7120   52.4780 C   0  0  0  0  0  0  0  0  0  0  0  0
    6.8310   47.2000   52.5730 C   0  0  0  0  0  0  0  0  0  0  0  0
    7.8480   46.6330   51.8050 C   0  0  0  0  0  0  0  0  0  0  0  0
    9.4850   47.2500   51.9280 Cl  0  0  0  0  0  0  0  0  0  0  0  0
    7.5620   45.5790   50.9320 C   0  0  0  0  0  0  0  0  0  0  0  0
    6.2470   45.0790   50.8230 C   0  0  0  0  0  0  0  0  0  0  0  0
    5.9130   44.0180   49.9620 O   0  0  0  0  0  0  0  0  0  0  0  0
    6.8090   43.0250   49.4580 C   0  0  0  0  0  0  0  0  0  0  0  0
    6.3230   41.6190   49.8090 C   0  0  0  0  0  0  0  0  0  0  0  0
    5.7800   41.0270   48.6840 F   0  0  0  0  0  0  0  0  0  0  0  0
    7.3870   40.8530   50.2500 F   0  0  0  0  0  0  0  0  0  0  0  0
    5.3590   41.6670   50.7970 F   0  0  0  0  0  0  0  0  0  0  0  0
    1.1200   44.1000   51.0940 C   0  0  0  0  0  0  0  0  0  0  0  0
   -0.1710   43.6840   50.9950 N   0  0  0  0  0  0  0  0  0  0  0  0
   -2.3480   41.6340   51.1330 H   0  0  0  0  0  0  0  0  0  0  0  0
   -2.8450   42.9400   52.2650 H   0  0  0  0  0  0  0  0  0  0  0  0
   -0.3984   41.6714   53.7028 H   0  0  0  0  0  0  0  0  0  0  0  0
    1.9836   42.3903   53.9212 H   0  0  0  0  0  0  0  0  0  0  0  0
    3.2860   45.5860   50.7510 H   0  0  0  0  0  0  0  0  0  0  0  0
    4.7263   47.1693   53.0791 H   0  0  0  0  0  0  0  0  0  0  0  0
    7.0573   48.0331   53.2547 H   0  0  0  0  0  0  0  0  0  0  0  0
    8.3669   45.1369   50.3265 H   0  0  0  0  0  0  0  0  0  0  0  0
    6.8733   43.1206   48.3640 H   0  0  0  0  0  0  0  0  0  0  0  0
    7.7966   43.1790   49.9173 H   0  0  0  0  0  0  0  0  0  0  0  0
    1.5340   44.7851   50.3395 H   0  0  0  0  0  0  0  0  0  0  0  0
  1  2  1  0
  2  3  2  0
  3  4  1  0
  4  5  2  0
  5  6  1  0
  6  7  2  0
  6  8  1  0
  8  9  1  0
  9 10  2  0
 10 11  1  0
 11 12  2  0
 12 13  1  0
 12 14  1  0
 14 15  2  0
 15 16  1  0
 16 17  1  0
 17 18  1  0
 18 19  1  0
 18 20  1  0
 18 21  1  0
  5 22  1  0
 22 23  2  0
 23  2  1  0
 15  9  1  0
  1 24  1  0
  1 25  1  0
  3 26  1  0
  4 27  1  0
  8 28  1  0
 10 29  1  0
 11 30  1  0
 14 31  1  0
 17 32  1  0
 17 33  1  0
 22 34  1  0
M  END
>  <meeko>  (2) 
{"is_sidechain": [false], "free_energy": -7.761, "intermolecular_energy": -10.314, "internal_energy": -0.841}

$$$$
ligand_25_conformer_3_docked
     RDKit          3D

 34 35  0  0  0  0  0  0  0  0999 V2000
   -0.6280   45.2820   56.9230 N   0  0  0  0  0  0  0  0  0  0  0  0
    0.3260   45.2520   55.8620 C   0  0  0  0  0  0  0  0  0  0  0  0
    1.6860   45.4410   56.1250 C   0  0  0  0  0  0  0  0  0  0  0  0
    2.5990   45.4060   55.0690 C   0  0  0  0  0  0  0  0  0  0  0  0
    2.1550   45.1940   53.7540 C   0  0  0  0  0  0  0  0  0  0  0  0
    3.1320   45.1550   52.6390 C   0  0  0  0  0  0  0  0  0  0  0  0
    2.7830   45.5860   51.5060 O   0  0  0  0  0  0  0  0  0  0  0  0
    4.4650   44.6430   52.8320 N   0  0  0  0  0  0  0  0  0  0  0  0
    5.4350   44.5360   51.7750 C   0  0  0  0  0  0  0  0  0  0  0  0
    5.3940   43.4610   50.8710 C   0  0  0  0  0  0  0  0  0  0  0  0
    6.3570   43.3440   49.8670 C   0  0  0  0  0  0  0  0  0  0  0  0
    7.3760   44.2920   49.7610 C   0  0  0  0  0  0  0  0  0  0  0  0
    8.5830   44.1410   48.4970 Cl  0  0  0  0  0  0  0  0  0  0  0  0
    7.4400   45.3550   50.6660 C   0  0  0  0  0  0  0  0  0  0  0  0
    6.4760   45.4820   51.6880 C   0  0  0  0  0  0  0  0  0  0  0  0
    6.4980   46.5370   52.6170 O   0  0  0  0  0  0  0  0  0  0  0  0
    7.4810   46.7490   53.6320 C   0  0  0  0  0  0  0  0  0  0  0  0
    8.5490   47.7390   53.1650 C   0  0  0  0  0  0  0  0  0  0  0  0
    7.9840   48.6380   52.2790 F   0  0  0  0  0  0  0  0  0  0  0  0
    9.0510   48.4320   54.2510 F   0  0  0  0  0  0  0  0  0  0  0  0
    9.5830   47.0790   52.5310 F   0  0  0  0  0  0  0  0  0  0  0  0
    0.7790   44.9950   53.5400 C   0  0  0  0  0  0  0  0  0  0  0  0
   -0.0890   45.0290   54.5860 N   0  0  0  0  0  0  0  0  0  0  0  0
   -0.8070   46.1590   57.4610 H   0  0  0  0  0  0  0  0  0  0  0  0
   -1.1610   44.4200   57.1750 H   0  0  0  0  0  0  0  0  0  0  0  0
    2.0335   45.6156   57.1539 H   0  0  0  0  0  0  0  0  0  0  0  0
    3.6718   45.5453   55.2685 H   0  0  0  0  0  0  0  0  0  0  0  0
    4.7730   44.3650   53.7900 H   0  0  0  0  0  0  0  0  0  0  0  0
    4.5978   42.7066   50.9550 H   0  0  0  0  0  0  0  0  0  0  0  0
    6.3127   42.5037   49.1586 H   0  0  0  0  0  0  0  0  0  0  0  0
    8.2472   46.0974   50.5808 H   0  0  0  0  0  0  0  0  0  0  0  0
    6.9889   47.1487   54.5309 H   0  0  0  0  0  0  0  0  0  0  0  0
    7.9680   45.7878   53.8533 H   0  0  0  0  0  0  0  0  0  0  0  0
    0.4038   44.8112   52.5225 H   0  0  0  0  0  0  0  0  0  0  0  0
  1  2  1  0
  2  3  2  0
  3  4  1  0
  4  5  2  0
  5  6  1  0
  6  7  2  0
  6  8  1  0
  8  9  1  0
  9 10  2  0
 10 11  1  0
 11 12  2  0
 12 13  1  0
 12 14  1  0
 14 15  2  0
 15 16  1  0
 16 17  1  0
 17 18  1  0
 18 19  1  0
 18 20  1  0
 18 21  1  0
  5 22  1  0
 22 23  2  0
 23  2  1  0
 15  9  1  0
  1 24  1  0
  1 25  1  0
  3 26  1  0
  4 27  1  0
  8 28  1  0
 10 29  1  0
 11 30  1  0
 14 31  1  0
 17 32  1  0
 17 33  1  0
 22 34  1  0
M  END
>  <meeko>  (3) 
{"is_sidechain": [false], "free_energy": -7.669, "intermolecular_energy": -10.258, "internal_energy": -0.775}

$$$$
ligand_25_conformer_3_docked
     RDKit          3D

 34 35  0  0  0  0  0  0  0  0999 V2000
   -2.0090   44.7030   53.2940 N   0  0  0  0  0  0  0  0  0  0  0  0
   -0.5850   44.7880   53.2590 C   0  0  0  0  0  0  0  0  0  0  0  0
    0.1900   44.0810   54.1830 C   0  0  0  0  0  0  0  0  0  0  0  0
    1.5820   44.1800   54.1280 C   0  0  0  0  0  0  0  0  0  0  0  0
    2.1970   44.9900   53.1600 C   0  0  0  0  0  0  0  0  0  0  0  0
    3.6770   45.0870   53.1060 C   0  0  0  0  0  0  0  0  0  0  0  0
    4.3640   44.3480   53.8640 O   0  0  0  0  0  0  0  0  0  0  0  0
    4.3330   45.9990   52.2050 N   0  0  0  0  0  0  0  0  0  0  0  0
    5.7600   46.1690   52.1470 C   0  0  0  0  0  0  0  0  0  0  0  0
    6.4090   47.0750   53.0030 C   0  0  0  0  0  0  0  0  0  0  0  0
    7.7900   47.2600   52.9210 C   0  0  0  0  0  0  0  0  0  0  0  0
    8.5370   46.5510   51.9790 C   0  0  0  0  0  0  0  0  0  0  0  0
   10.2720   46.7870   51.8800 Cl  0  0  0  0  0  0  0  0  0  0  0  0
    7.9010   45.6610   51.1080 C   0  0  0  0  0  0  0  0  0  0  0  0
    6.5050   45.4690   51.1770 C   0  0  0  0  0  0  0  0  0  0  0  0
    5.8240   44.5810   50.3260 O   0  0  0  0  0  0  0  0  0  0  0  0
    5.6990   43.1680   50.5030 C   0  0  0  0  0  0  0  0  0  0  0  0
    6.5470   42.4090   49.4830 C   0  0  0  0  0  0  0  0  0  0  0  0
    7.2080   41.3730   50.1170 F   0  0  0  0  0  0  0  0  0  0  0  0
    5.7330   41.8850   48.4950 F   0  0  0  0  0  0  0  0  0  0  0  0
    7.4810   43.2460   48.9040 F   0  0  0  0  0  0  0  0  0  0  0  0
    1.3770   45.6720   52.2440 C   0  0  0  0  0  0  0  0  0  0  0  0
    0.0240   45.5560   52.3170 N   0  0  0  0  0  0  0  0  0  0  0  0
   -2.4890   43.7970   53.4920 H   0  0  0  0  0  0  0  0  0  0  0  0
   -2.5900   45.5530   53.1200 H   0  0  0  0  0  0  0  0  0  0  0  0
   -0.2921   43.4525   54.9463 H   0  0  0  0  0  0  0  0  0  0  0  0
    2.1994   43.6208   54.8464 H   0  0  0  0  0  0  0  0  0  0  0  0
    3.7610   46.5460   51.5250 H   0  0  0  0  0  0  0  0  0  0  0  0
    5.8248   47.6422   53.7426 H   0  0  0  0  0  0  0  0  0  0  0  0
    8.2906   47.9659   53.6001 H   0  0  0  0  0  0  0  0  0  0  0  0
    8.4928   45.1071   50.3644 H   0  0  0  0  0  0  0  0  0  0  0  0
    6.0327   42.9019   51.5168 H   0  0  0  0  0  0  0  0  0  0  0  0
    4.6448   42.8894   50.3576 H   0  0  0  0  0  0  0  0  0  0  0  0
    1.8316   46.3019   51.4652 H   0  0  0  0  0  0  0  0  0  0  0  0
  1  2  1  0
  2  3  2  0
  3  4  1  0
  4  5  2  0
  5  6  1  0
  6  7  2  0
  6  8  1  0
  8  9  1  0
  9 10  2  0
 10 11  1  0
 11 12  2  0
 12 13  1  0
 12 14  1  0
 14 15  2  0
 15 16  1  0
 16 17  1  0
 17 18  1  0
 18 19  1  0
 18 20  1  0
 18 21  1  0
  5 22  1  0
 22 23  2  0
 23  2  1  0
 15  9  1  0
  1 24  1  0
  1 25  1  0
  3 26  1  0
  4 27  1  0
  8 28  1  0
 10 29  1  0
 11 30  1  0
 14 31  1  0
 17 32  1  0
 17 33  1  0
 22 34  1  0
M  END
>  <meeko>  (4) 
{"is_sidechain": [false], "free_energy": -7.663, "intermolecular_energy": -10.196, "internal_energy": -0.83}

$$$$
ligand_25_conformer_3_docked
     RDKit          3D

 34 35  0  0  0  0  0  0  0  0999 V2000
    6.4840   41.1860   48.9490 N   0  0  0  0  0  0  0  0  0  0  0  0
    5.6090   41.9210   49.8040 C   0  0  0  0  0  0  0  0  0  0  0  0
    5.8930   43.2490   50.1360 C   0  0  0  0  0  0  0  0  0  0  0  0
    5.0210   43.9470   50.9740 C   0  0  0  0  0  0  0  0  0  0  0  0
    3.8750   43.3170   51.4880 C   0  0  0  0  0  0  0  0  0  0  0  0
    2.9520   44.0670   52.3750 C   0  0  0  0  0  0  0  0  0  0  0  0
    2.6520   45.2560   52.0780 O   0  0  0  0  0  0  0  0  0  0  0  0
    2.3940   43.4590   53.5560 N   0  0  0  0  0  0  0  0  0  0  0  0
    1.5350   44.1550   54.4760 C   0  0  0  0  0  0  0  0  0  0  0  0
    0.1370   44.0380   54.3800 C   0  0  0  0  0  0  0  0  0  0  0  0
   -0.6930   44.7410   55.2560 C   0  0  0  0  0  0  0  0  0  0  0  0
   -0.1390   45.5740   56.2280 C   0  0  0  0  0  0  0  0  0  0  0  0
   -1.1860   46.4540   57.3260 Cl  0  0  0  0  0  0  0  0  0  0  0  0
    1.2490   45.7140   56.3220 C   0  0  0  0  0  0  0  0  0  0  0  0
    2.0990   45.0140   55.4410 C   0  0  0  0  0  0  0  0  0  0  0  0
    3.5000   45.1200   55.5010 O   0  0  0  0  0  0  0  0  0  0  0  0
    4.2790   46.2540   55.1110 C   0  0  0  0  0  0  0  0  0  0  0  0
    5.5580   45.8220   54.3960 C   0  0  0  0  0  0  0  0  0  0  0  0
    6.6560   46.2680   55.1090 F   0  0  0  0  0  0  0  0  0  0  0  0
    5.6060   44.4420   54.3150 F   0  0  0  0  0  0  0  0  0  0  0  0
    5.6090   46.3520   53.1210 F   0  0  0  0  0  0  0  0  0  0  0  0
    3.6250   41.9840   51.1150 C   0  0  0  0  0  0  0  0  0  0  0  0
    4.4880   41.3280   50.2940 N   0  0  0  0  0  0  0  0  0  0  0  0
    6.3950   40.1490   48.8510 H   0  0  0  0  0  0  0  0  0  0  0  0
    7.2270   41.6800   48.4070 H   0  0  0  0  0  0  0  0  0  0  0  0
    6.7949   43.7394   49.7408 H   0  0  0  0  0  0  0  0  0  0  0  0
    5.2322   44.9950   51.2330 H   0  0  0  0  0  0  0  0  0  0  0  0
    2.5810   42.4510   53.7500 H   0  0  0  0  0  0  0  0  0  0  0  0
   -0.3056   43.3888   53.6102 H   0  0  0  0  0  0  0  0  0  0  0  0
   -1.7854   44.6376   55.1793 H   0  0  0  0  0  0  0  0  0  0  0  0
    1.6808   46.3746   57.0883 H   0  0  0  0  0  0  0  0  0  0  0  0
    3.6834   46.8833   54.4333 H   0  0  0  0  0  0  0  0  0  0  0  0
    4.5565   46.8154   56.0153 H   0  0  0  0  0  0  0  0  0  0  0  0
    2.7274   41.4699   51.4891 H   0  0  0  0  0  0  0  0  0  0  0  0
  1  2  1  0
  2  3  2  0
  3  4  1  0
  4  5  2  0
  5  6  1  0
  6  7  2  0
  6  8  1  0
  8  9  1  0
  9 10  2  0
 10 11  1  0
 11 12  2  0
 12 13  1  0
 12 14  1  0
 14 15  2  0
 15 16  1  0
 16 17  1  0
 17 18  1  0
 18 19  1  0
 18 20  1  0
 18 21  1  0
  5 22  1  0
 22 23  2  0
 23  2  1  0
 15  9  1  0
  1 24  1  0
  1 25  1  0
  3 26  1  0
  4 27  1  0
  8 28  1  0
 10 29  1  0
 11 30  1  0
 14 31  1  0
 17 32  1  0
 17 33  1  0
 22 34  1  0
M  END
>  <meeko>  (5) 
{"is_sidechain": [false], "free_energy": -7.628, "intermolecular_energy": -9.76, "internal_energy": -1.22}

$$$$
