MODEL 1
REMARK VINA RESULT:    -9.823      0.000      0.000
REMARK INTER + INTRA:         -12.889
REMARK INTER:                 -12.407
REMARK INTRA:                  -0.482
REMARK UNBOUND:                -0.482
REMARK SMILES Cc1cc(F)c2nc(O)cc(C(=O)N3CC[C@@H](Nc4ccccc4)C3)c2c1
REMARK SMILES IDX 12 1 13 2 11 3 2 4 3 5 27 6 4 7 26 8 6 9 7 10 10 11 8 12
REMARK SMILES IDX 1 13 5 14 9 15 14 17 15 18 25 19 16 20 17 21 18 22 19 24
REMARK SMILES IDX 20 25 24 26 21 27 23 28 22 29
REMARK H PARENT 9 16 18 23
ROOT
ATOM      1  C   UNL     1       5.156  45.449  51.019  1.00  0.00     0.254 C 
ATOM      2  O   UNL     1       4.719  46.174  50.085  1.00  0.00    -0.269 OA
ENDROOT
BRANCH   1   3
ATOM      3  C   UNL     1       5.568  46.087  52.285  1.00  0.00     0.054 A 
ATOM      4  C   UNL     1       9.304  46.349  52.043  1.00  0.00    -0.047 A 
ATOM      5  C   UNL     1       9.579  47.019  53.243  1.00  0.00     0.045 A 
ATOM      6  C   UNL     1       7.976  46.039  51.710  1.00  0.00     0.014 A 
ATOM      7  C   UNL     1       8.546  47.346  54.124  1.00  0.00     0.149 A 
ATOM      8  C   UNL     1       6.921  46.380  52.580  1.00  0.00     0.017 A 
ATOM      9  C   UNL     1       7.221  47.025  53.805  1.00  0.00     0.111 A 
ATOM     10  N   UNL     1       6.225  47.331  54.677  1.00  0.00    -0.210 NA
ATOM     11  C   UNL     1       4.576  46.406  53.222  1.00  0.00     0.082 A 
ATOM     12  C   UNL     1       4.925  47.036  54.420  1.00  0.00     0.212 A 
ATOM     13  C   UNL     1      10.413  46.028  51.085  1.00  0.00     0.044 C 
ATOM     14  F   UNL     1       8.836  47.977  55.290  1.00  0.00    -0.205 F 
BRANCH  12  15
ATOM     15  O   UNL     1       3.951  47.371  55.356  1.00  0.00    -0.493 OA
ATOM     16  H   UNL     1       3.821  48.327  55.668  1.00  0.00     0.295 HD
ENDBRANCH  12  15
ENDBRANCH   1   3
BRANCH   1  17
ATOM     17  N   UNL     1       5.265  44.027  50.830  1.00  0.00    -0.336 N 
ATOM     18  C   UNL     1       4.284  43.085  51.340  1.00  0.00     0.122 C 
ATOM     19  C   UNL     1       6.277  43.392  50.002  1.00  0.00     0.144 C 
ATOM     20  C   UNL     1       4.628  41.746  50.699  1.00  0.00     0.048 C 
ATOM     21  C   UNL     1       6.068  41.887  50.194  1.00  0.00     0.100 C 
BRANCH  21  22
ATOM     22  N   UNL     1       6.283  41.131  48.951  1.00  0.00    -0.380 N 
ATOM     23  H   UNL     1       7.145  40.547  48.863  1.00  0.00     0.160 HD
BRANCH  22  24
ATOM     24  C   UNL     1       5.379  41.150  47.828  1.00  0.00     0.034 A 
ATOM     25  C   UNL     1       4.145  40.469  47.849  1.00  0.00     0.025 A 
ATOM     26  C   UNL     1       5.743  41.857  46.669  1.00  0.00     0.025 A 
ATOM     27  C   UNL     1       3.296  40.509  46.738  1.00  0.00     0.002 A 
ATOM     28  C   UNL     1       4.891  41.893  45.561  1.00  0.00     0.002 A 
ATOM     29  C   UNL     1       3.668  41.221  45.596  1.00  0.00     0.000 A 
ENDBRANCH  22  24
ENDBRANCH  21  22
ENDBRANCH   1  17
TORSDOF 5
ENDMDL
MODEL 2
REMARK VINA RESULT:    -9.794      3.385      6.352
REMARK INTER + INTRA:         -12.853
REMARK INTER:                 -12.615
REMARK INTRA:                  -0.238
REMARK UNBOUND:                -0.482
REMARK SMILES Cc1cc(F)c2nc(O)cc(C(=O)N3CC[C@@H](Nc4ccccc4)C3)c2c1
REMARK SMILES IDX 12 1 13 2 11 3 2 4 3 5 27 6 4 7 26 8 6 9 7 10 10 11 8 12
REMARK SMILES IDX 1 13 5 14 9 15 14 17 15 18 25 19 16 20 17 21 18 22 19 24
REMARK SMILES IDX 20 25 24 26 21 27 23 28 22 29
REMARK H PARENT 9 16 18 23
ROOT
ATOM      1  C   UNL     1       5.228  45.994  51.404  1.00  0.00     0.254 C 
ATOM      2  O   UNL     1       4.398  46.261  50.493  1.00  0.00    -0.269 OA
ENDROOT
BRANCH   1   3
ATOM      3  C   UNL     1       6.594  45.583  51.027  1.00  0.00     0.054 A 
ATOM      4  C   UNL     1       8.831  47.418  53.417  1.00  0.00    -0.047 A 
ATOM      5  C   UNL     1      10.077  46.911  53.023  1.00  0.00     0.045 A 
ATOM      6  C   UNL     1       7.667  46.981  52.766  1.00  0.00     0.014 A 
ATOM      7  C   UNL     1      10.168  46.003  51.965  1.00  0.00     0.149 A 
ATOM      8  C   UNL     1       7.742  46.050  51.710  1.00  0.00     0.017 A 
ATOM      9  C   UNL     1       9.013  45.576  51.302  1.00  0.00     0.111 A 
ATOM     10  N   UNL     1       9.114  44.707  50.263  1.00  0.00    -0.210 NA
ATOM     11  C   UNL     1       6.750  44.700  49.949  1.00  0.00     0.082 A 
ATOM     12  C   UNL     1       8.027  44.266  49.581  1.00  0.00     0.212 A 
ATOM     13  C   UNL     1       8.733  48.368  54.575  1.00  0.00     0.044 C 
ATOM     14  F   UNL     1      11.387  45.539  51.587  1.00  0.00    -0.205 F 
BRANCH  12  15
ATOM     15  O   UNL     1       8.197  43.379  48.521  1.00  0.00    -0.493 OA
ATOM     16  H   UNL     1       8.104  42.378  48.647  1.00  0.00     0.295 HD
ENDBRANCH  12  15
ENDBRANCH   1   3
BRANCH   1  17
ATOM     17  N   UNL     1       4.827  46.075  52.783  1.00  0.00    -0.336 N 
ATOM     18  C   UNL     1       4.410  47.315  53.413  1.00  0.00     0.122 C 
ATOM     19  C   UNL     1       4.661  44.919  53.650  1.00  0.00     0.144 C 
ATOM     20  C   UNL     1       3.825  46.914  54.762  1.00  0.00     0.048 C 
ATOM     21  C   UNL     1       4.340  45.496  55.032  1.00  0.00     0.100 C 
BRANCH  21  22
ATOM     22  N   UNL     1       3.349  44.688  55.757  1.00  0.00    -0.380 N 
ATOM     23  H   UNL     1       3.685  44.019  56.487  1.00  0.00     0.160 HD
BRANCH  22  24
ATOM     24  C   UNL     1       1.928  44.748  55.520  1.00  0.00     0.034 A 
ATOM     25  C   UNL     1       1.337  44.184  54.372  1.00  0.00     0.025 A 
ATOM     26  C   UNL     1       1.106  45.403  56.454  1.00  0.00     0.025 A 
ATOM     27  C   UNL     1      -0.046  44.266  54.176  1.00  0.00     0.002 A 
ATOM     28  C   UNL     1      -0.275  45.482  56.253  1.00  0.00     0.002 A 
ATOM     29  C   UNL     1      -0.851  44.912  55.116  1.00  0.00     0.000 A 
ENDBRANCH  22  24
ENDBRANCH  21  22
ENDBRANCH   1  17
TORSDOF 5
ENDMDL
MODEL 3
REMARK VINA RESULT:    -9.521      3.083      6.871
REMARK INTER + INTRA:         -12.508
REMARK INTER:                 -11.769
REMARK INTRA:                  -0.739
REMARK UNBOUND:                -0.482
REMARK SMILES Cc1cc(F)c2nc(O)cc(C(=O)N3CC[C@@H](Nc4ccccc4)C3)c2c1
REMARK SMILES IDX 12 1 13 2 11 3 2 4 3 5 27 6 4 7 26 8 6 9 7 10 10 11 8 12
REMARK SMILES IDX 1 13 5 14 9 15 14 17 15 18 25 19 16 20 17 21 18 22 19 24
REMARK SMILES IDX 20 25 24 26 21 27 23 28 22 29
REMARK H PARENT 9 16 18 23
ROOT
ATOM      1  C   UNL     1       3.421  45.852  52.561  1.00  0.00     0.254 C 
ATOM      2  O   UNL     1       2.779  46.849  52.133  1.00  0.00    -0.269 OA
ENDROOT
BRANCH   1   3
ATOM      3  C   UNL     1       3.096  44.513  52.030  1.00  0.00     0.054 A 
ATOM      4  C   UNL     1       6.139  43.502  50.080  1.00  0.00    -0.047 A 
ATOM      5  C   UNL     1       5.758  42.212  49.685  1.00  0.00     0.045 A 
ATOM      6  C   UNL     1       5.267  44.274  50.864  1.00  0.00     0.014 A 
ATOM      7  C   UNL     1       4.503  41.708  50.035  1.00  0.00     0.149 A 
ATOM      8  C   UNL     1       4.006  43.770  51.241  1.00  0.00     0.017 A 
ATOM      9  C   UNL     1       3.623  42.478  50.803  1.00  0.00     0.111 A 
ATOM     10  N   UNL     1       2.398  41.985  51.123  1.00  0.00    -0.210 NA
ATOM     11  C   UNL     1       1.837  43.970  52.320  1.00  0.00     0.082 A 
ATOM     12  C   UNL     1       1.504  42.693  51.859  1.00  0.00     0.212 A 
ATOM     13  C   UNL     1       7.500  44.029  49.730  1.00  0.00     0.044 C 
ATOM     14  F   UNL     1       4.146  40.463  49.626  1.00  0.00    -0.205 F 
BRANCH  12  15
ATOM     15  O   UNL     1       0.262  42.135  52.149  1.00  0.00    -0.493 OA
ATOM     16  H   UNL     1       0.179  41.271  52.672  1.00  0.00     0.295 HD
ENDBRANCH  12  15
ENDBRANCH   1   3
BRANCH   1  17
ATOM     17  N   UNL     1       4.436  46.030  53.564  1.00  0.00    -0.336 N 
ATOM     18  C   UNL     1       4.810  44.986  54.503  1.00  0.00     0.122 C 
ATOM     19  C   UNL     1       5.287  47.205  53.661  1.00  0.00     0.144 C 
ATOM     20  C   UNL     1       6.076  45.486  55.189  1.00  0.00     0.048 C 
ATOM     21  C   UNL     1       6.120  46.995  54.928  1.00  0.00     0.100 C 
BRANCH  21  22
ATOM     22  N   UNL     1       7.500  47.479  54.774  1.00  0.00    -0.380 N 
ATOM     23  H   UNL     1       7.912  48.068  55.533  1.00  0.00     0.160 HD
BRANCH  22  24
ATOM     24  C   UNL     1       8.330  47.200  53.629  1.00  0.00     0.034 A 
ATOM     25  C   UNL     1       9.466  46.369  53.713  1.00  0.00     0.025 A 
ATOM     26  C   UNL     1       8.008  47.785  52.392  1.00  0.00     0.025 A 
ATOM     27  C   UNL     1      10.248  46.125  52.579  1.00  0.00     0.002 A 
ATOM     28  C   UNL     1       8.793  47.537  51.262  1.00  0.00     0.002 A 
ATOM     29  C   UNL     1       9.911  46.707  51.355  1.00  0.00     0.000 A 
ENDBRANCH  22  24
ENDBRANCH  21  22
ENDBRANCH   1  17
TORSDOF 5
ENDMDL
MODEL 4
REMARK VINA RESULT:    -9.497      2.658      4.473
REMARK INTER + INTRA:         -12.477
REMARK INTER:                 -12.638
REMARK INTRA:                   0.160
REMARK UNBOUND:                -0.482
REMARK SMILES Cc1cc(F)c2nc(O)cc(C(=O)N3CC[C@@H](Nc4ccccc4)C3)c2c1
REMARK SMILES IDX 12 1 13 2 11 3 2 4 3 5 27 6 4 7 26 8 6 9 7 10 10 11 8 12
REMARK SMILES IDX 1 13 5 14 9 15 14 17 15 18 25 19 16 20 17 21 18 22 19 24
REMARK SMILES IDX 20 25 24 26 21 27 23 28 22 29
REMARK H PARENT 9 16 18 23
ROOT
ATOM      1  C   UNL     1       5.761  45.191  51.165  1.00  0.00     0.254 C 
ATOM      2  O   UNL     1       6.305  45.517  50.075  1.00  0.00    -0.269 OA
ENDROOT
BRANCH   1   3
ATOM      3  C   UNL     1       6.068  45.974  52.378  1.00  0.00     0.054 A 
ATOM      4  C   UNL     1       9.804  46.319  52.364  1.00  0.00    -0.047 A 
ATOM      5  C   UNL     1       9.980  47.123  53.499  1.00  0.00     0.045 A 
ATOM      6  C   UNL     1       8.511  45.936  51.978  1.00  0.00     0.014 A 
ATOM      7  C   UNL     1       8.879  47.512  54.266  1.00  0.00     0.149 A 
ATOM      8  C   UNL     1       7.390  46.337  52.731  1.00  0.00     0.017 A 
ATOM      9  C   UNL     1       7.588  47.119  53.895  1.00  0.00     0.111 A 
ATOM     10  N   UNL     1       6.526  47.488  54.659  1.00  0.00    -0.210 NA
ATOM     11  C   UNL     1       5.005  46.362  53.206  1.00  0.00     0.082 A 
ATOM     12  C   UNL     1       5.255  47.129  54.348  1.00  0.00     0.212 A 
ATOM     13  C   UNL     1      10.986  45.931  51.524  1.00  0.00     0.044 C 
ATOM     14  F   UNL     1       9.072  48.274  55.373  1.00  0.00    -0.205 F 
BRANCH  12  15
ATOM     15  O   UNL     1       4.209  47.533  55.173  1.00  0.00    -0.493 OA
ATOM     16  H   UNL     1       4.372  48.107  55.992  1.00  0.00     0.295 HD
ENDBRANCH  12  15
ENDBRANCH   1   3
BRANCH   1  17
ATOM     17  N   UNL     1       4.875  44.059  51.212  1.00  0.00    -0.336 N 
ATOM     18  C   UNL     1       5.268  42.730  50.778  1.00  0.00     0.122 C 
ATOM     19  C   UNL     1       3.554  44.085  51.819  1.00  0.00     0.144 C 
ATOM     20  C   UNL     1       4.154  41.800  51.242  1.00  0.00     0.048 C 
ATOM     21  C   UNL     1       2.953  42.707  51.532  1.00  0.00     0.100 C 
BRANCH  21  22
ATOM     22  N   UNL     1       2.152  42.202  52.658  1.00  0.00    -0.380 N 
ATOM     23  H   UNL     1       2.452  41.319  53.129  1.00  0.00     0.160 HD
BRANCH  22  24
ATOM     24  C   UNL     1       0.963  42.847  53.156  1.00  0.00     0.034 A 
ATOM     25  C   UNL     1       0.987  43.698  54.278  1.00  0.00     0.025 A 
ATOM     26  C   UNL     1      -0.264  42.609  52.512  1.00  0.00     0.025 A 
ATOM     27  C   UNL     1      -0.189  44.303  54.732  1.00  0.00     0.002 A 
ATOM     28  C   UNL     1      -1.437  43.215  52.970  1.00  0.00     0.002 A 
ATOM     29  C   UNL     1      -1.400  44.063  54.078  1.00  0.00     0.000 A 
ENDBRANCH  22  24
ENDBRANCH  21  22
ENDBRANCH   1  17
TORSDOF 5
ENDMDL
MODEL 5
REMARK VINA RESULT:    -8.978      5.243      8.514
REMARK INTER + INTRA:         -11.821
REMARK INTER:                 -11.425
REMARK INTRA:                  -0.396
REMARK UNBOUND:                -0.482
REMARK SMILES Cc1cc(F)c2nc(O)cc(C(=O)N3CC[C@@H](Nc4ccccc4)C3)c2c1
REMARK SMILES IDX 12 1 13 2 11 3 2 4 3 5 27 6 4 7 26 8 6 9 7 10 10 11 8 12
REMARK SMILES IDX 1 13 5 14 9 15 14 17 15 18 25 19 16 20 17 21 18 22 19 24
REMARK SMILES IDX 20 25 24 26 21 27 23 28 22 29
REMARK H PARENT 9 16 18 23
ROOT
ATOM      1  C   UNL     1       1.796  44.555  54.220  1.00  0.00     0.254 C 
ATOM      2  O   UNL     1       1.613  43.373  53.821  1.00  0.00    -0.269 OA
ENDROOT
BRANCH   1   3
ATOM      3  C   UNL     1       1.010  45.050  55.367  1.00  0.00     0.054 A 
ATOM      4  C   UNL     1      -2.563  44.417  54.409  1.00  0.00    -0.047 A 
ATOM      5  C   UNL     1      -3.209  44.851  55.575  1.00  0.00     0.045 A 
ATOM      6  C   UNL     1      -1.163  44.472  54.330  1.00  0.00     0.014 A 
ATOM      7  C   UNL     1      -2.470  45.372  56.640  1.00  0.00     0.149 A 
ATOM      8  C   UNL     1      -0.403  44.976  55.404  1.00  0.00     0.017 A 
ATOM      9  C   UNL     1      -1.075  45.444  56.560  1.00  0.00     0.111 A 
ATOM     10  N   UNL     1      -0.367  45.969  57.595  1.00  0.00    -0.210 NA
ATOM     11  C   UNL     1       1.696  45.615  56.450  1.00  0.00     0.082 A 
ATOM     12  C   UNL     1       0.986  46.069  57.566  1.00  0.00     0.212 A 
ATOM     13  C   UNL     1      -3.358  43.828  53.280  1.00  0.00     0.044 C 
ATOM     14  F   UNL     1      -3.116  45.806  57.752  1.00  0.00    -0.205 F 
BRANCH  12  15
ATOM     15  O   UNL     1       1.654  46.621  58.656  1.00  0.00    -0.493 OA
ATOM     16  H   UNL     1       1.594  46.208  59.579  1.00  0.00     0.295 HD
ENDBRANCH  12  15
ENDBRANCH   1   3
BRANCH   1  17
ATOM     17  N   UNL     1       2.745  45.400  53.546  1.00  0.00    -0.336 N 
ATOM     18  C   UNL     1       2.353  46.421  52.590  1.00  0.00     0.122 C 
ATOM     19  C   UNL     1       4.168  45.424  53.843  1.00  0.00     0.144 C 
ATOM     20  C   UNL     1       3.608  47.244  52.330  1.00  0.00     0.048 C 
ATOM     21  C   UNL     1       4.777  46.378  52.813  1.00  0.00     0.100 C 
BRANCH  21  22
ATOM     22  N   UNL     1       5.858  47.197  53.382  1.00  0.00    -0.380 N 
ATOM     23  H   UNL     1       5.609  47.966  54.044  1.00  0.00     0.160 HD
BRANCH  22  24
ATOM     24  C   UNL     1       7.256  47.014  53.079  1.00  0.00     0.034 A 
ATOM     25  C   UNL     1       8.264  47.221  54.042  1.00  0.00     0.025 A 
ATOM     26  C   UNL     1       7.628  46.631  51.779  1.00  0.00     0.025 A 
ATOM     27  C   UNL     1       9.609  47.035  53.707  1.00  0.00     0.002 A 
ATOM     28  C   UNL     1       8.975  46.446  51.450  1.00  0.00     0.002 A 
ATOM     29  C   UNL     1       9.964  46.647  52.414  1.00  0.00     0.000 A 
ENDBRANCH  22  24
ENDBRANCH  21  22
ENDBRANCH   1  17
TORSDOF 5
ENDMDL
