ligand_4_conformer_3_docked
     RDKit          3D

 44 47  0  0  0  0  0  0  0  0999 V2000
    9.9230   47.1080   53.6570 C   0  0  0  0  0  0  0  0  0  0  0  0
    8.5800   47.4200   53.8850 C   0  0  0  0  0  0  0  0  0  0  0  0
    7.6060   47.0500   52.9510 C   0  0  0  0  0  0  0  0  0  0  0  0
    7.9660   46.3550   51.7890 C   0  0  0  0  0  0  0  0  0  0  0  0
    6.9640   46.0150   50.8690 O   0  0  0  0  0  0  0  0  0  0  0  0
    6.4030   44.7410   50.7090 C   0  0  0  0  0  0  0  0  0  0  0  0
    6.8280   43.8650   49.6990 C   0  0  0  0  0  0  0  0  0  0  0  0
    6.2360   42.6060   49.6170 C   0  0  0  0  0  0  0  0  0  0  0  0
    5.2800   42.2460   50.5100 N   0  0  0  0  0  0  0  0  0  0  0  0
    4.8880   43.0960   51.4980 C   0  0  0  0  0  0  0  0  0  0  0  0
    3.8830   42.7050   52.4430 N   0  0  0  0  0  0  0  0  0  0  0  0
    2.5280   43.2760   52.4390 C   0  0  2  0  0  0  0  0  0  0  0  0
    2.3760   44.3150   51.3030 C   0  0  0  0  0  0  0  0  0  0  0  0
    1.2820   45.3340   51.6230 C   0  0  0  0  0  0  0  0  0  0  0  0
    1.6770   46.1900   52.8380 C   0  0  2  0  0  0  0  0  0  0  0  0
    2.5910   47.1870   52.4290 O   0  0  0  0  0  0  0  0  0  0  0  0
    3.6510   47.2010   53.3560 C   0  0  0  0  0  0  0  0  0  0  0  0
    3.7350   45.8450   54.0180 C   0  0  0  0  0  0  0  0  0  0  0  0
    2.3050   45.3730   53.9820 C   0  0  2  0  0  0  0  0  0  0  0  0
    2.1640   43.8410   53.8410 C   0  0  0  0  0  0  0  0  0  0  0  0
    5.4530   44.3280   51.5890 N   0  0  0  0  0  0  0  0  0  0  0  0
    9.3240   46.0620   51.5550 C   0  0  0  0  0  0  0  0  0  0  0  0
   10.2940   46.4330   52.4910 C   0  0  0  0  0  0  0  0  0  0  0  0
   10.6874   47.3935   54.3947 H   0  0  0  0  0  0  0  0  0  0  0  0
    8.2883   47.9570   54.7996 H   0  0  0  0  0  0  0  0  0  0  0  0
    6.5514   47.3063   53.1302 H   0  0  0  0  0  0  0  0  0  0  0  0
    7.6113   44.1653   48.9874 H   0  0  0  0  0  0  0  0  0  0  0  0
    6.5439   41.9040   48.8281 H   0  0  0  0  0  0  0  0  0  0  0  0
    4.1570   42.0190   53.1830 H   0  0  0  0  0  0  0  0  0  0  0  0
    1.8008   42.4778   52.2290 H   0  0  0  0  0  0  0  0  0  0  0  0
    3.3312   44.8445   51.1718 H   0  0  0  0  0  0  0  0  0  0  0  0
    2.0955   43.7830   50.3820 H   0  0  0  0  0  0  0  0  0  0  0  0
    1.1329   45.9895   50.7523 H   0  0  0  0  0  0  0  0  0  0  0  0
    0.3526   44.7942   51.8571 H   0  0  0  0  0  0  0  0  0  0  0  0
    0.7496   46.6337   53.2292 H   0  0  0  0  0  0  0  0  0  0  0  0
    4.5953   47.4175   52.8350 H   0  0  0  0  0  0  0  0  0  0  0  0
    3.4746   47.9777   54.1147 H   0  0  0  0  0  0  0  0  0  0  0  0
    4.3913   45.1670   53.4527 H   0  0  0  0  0  0  0  0  0  0  0  0
    4.1593   45.8787   55.0323 H   0  0  0  0  0  0  0  0  0  0  0  0
    1.7775   45.5460   54.9316 H   0  0  0  0  0  0  0  0  0  0  0  0
    2.8246   43.3675   54.5822 H   0  0  0  0  0  0  0  0  0  0  0  0
    1.0993   43.6136   53.9981 H   0  0  0  0  0  0  0  0  0  0  0  0
    9.6218   45.5401   50.6337 H   0  0  0  0  0  0  0  0  0  0  0  0
   11.3520   46.1929   52.3091 H   0  0  0  0  0  0  0  0  0  0  0  0
  1  2  2  0
  2  3  1  0
  3  4  2  0
  4  5  1  0
  5  6  1  0
  6  7  2  0
  7  8  1  0
  8  9  2  0
  9 10  1  0
 10 11  1  0
 11 12  1  0
 12 13  1  0
 13 14  1  0
 14 15  1  0
 15 16  1  0
 16 17  1  0
 17 18  1  0
 18 19  1  0
 19 20  1  0
 10 21  2  0
  4 22  1  0
 22 23  2  0
 23  1  1  0
 21  6  1  0
 20 12  1  0
 19 15  1  0
  1 24  1  0
  2 25  1  0
  3 26  1  0
  7 27  1  0
  8 28  1  0
 11 29  1  0
 12 30  1  6
 13 31  1  0
 13 32  1  0
 14 33  1  0
 14 34  1  0
 15 35  1  1
 17 36  1  0
 17 37  1  0
 18 38  1  0
 18 39  1  0
 19 40  1  1
 20 41  1  0
 20 42  1  0
 22 43  1  0
 23 44  1  0
M  END
>  <meeko>  (1) 
{"is_sidechain": [false], "free_energy": -9.033, "intermolecular_energy": -11.145, "internal_energy": -0.602}

$$$$
ligand_4_conformer_3_docked
     RDKit          3D

 44 47  0  0  0  0  0  0  0  0999 V2000
   10.2110   47.1150   53.7020 C   0  0  0  0  0  0  0  0  0  0  0  0
    9.0020   47.4880   54.2950 C   0  0  0  0  0  0  0  0  0  0  0  0
    7.7970   47.2990   53.6080 C   0  0  0  0  0  0  0  0  0  0  0  0
    7.7920   46.7240   52.3310 C   0  0  0  0  0  0  0  0  0  0  0  0
    6.5670   46.5660   51.6680 O   0  0  0  0  0  0  0  0  0  0  0  0
    5.7470   45.4310   51.7330 C   0  0  0  0  0  0  0  0  0  0  0  0
    5.8160   44.4100   50.7720 C   0  0  0  0  0  0  0  0  0  0  0  0
    4.9820   43.3030   50.9160 C   0  0  0  0  0  0  0  0  0  0  0  0
    4.1370   43.2230   51.9750 N   0  0  0  0  0  0  0  0  0  0  0  0
    4.0890   44.2100   52.9110 C   0  0  0  0  0  0  0  0  0  0  0  0
    3.1990   44.1140   54.0300 N   0  0  0  0  0  0  0  0  0  0  0  0
    2.0050   44.9610   54.1660 C   0  0  2  0  0  0  0  0  0  0  0  0
    1.0010   44.3350   55.1620 C   0  0  0  0  0  0  0  0  0  0  0  0
   -0.4270   44.8030   54.8820 C   0  0  0  0  0  0  0  0  0  0  0  0
   -0.9080   44.2840   53.5160 C   0  0  2  0  0  0  0  0  0  0  0  0
   -1.2960   42.9310   53.6410 O   0  0  0  0  0  0  0  0  0  0  0  0
   -0.7230   42.2220   52.5690 C   0  0  0  0  0  0  0  0  0  0  0  0
    0.4990   42.9690   52.0900 C   0  0  0  0  0  0  0  0  0  0  0  0
    0.1550   44.4000   52.4090 C   0  0  2  0  0  0  0  0  0  0  0  0
    1.3830   45.2640   52.7740 C   0  0  0  0  0  0  0  0  0  0  0  0
    4.8950   45.2970   52.7830 N   0  0  0  0  0  0  0  0  0  0  0  0
    9.0160   46.3690   51.7300 C   0  0  0  0  0  0  0  0  0  0  0  0
   10.2180   46.5600   52.4200 C   0  0  0  0  0  0  0  0  0  0  0  0
   11.1571   47.2584   54.2445 H   0  0  0  0  0  0  0  0  0  0  0  0
    8.9971   47.9304   55.3021 H   0  0  0  0  0  0  0  0  0  0  0  0
    6.8484   47.6039   54.0740 H   0  0  0  0  0  0  0  0  0  0  0  0
    6.5130   44.4822   49.9241 H   0  0  0  0  0  0  0  0  0  0  0  0
    5.0085   42.4939   50.1713 H   0  0  0  0  0  0  0  0  0  0  0  0
    3.4510   43.4420   54.7910 H   0  0  0  0  0  0  0  0  0  0  0  0
    2.2981   45.9323   54.5911 H   0  0  0  0  0  0  0  0  0  0  0  0
    1.0429   43.2395   55.0716 H   0  0  0  0  0  0  0  0  0  0  0  0
    1.2769   44.6534   56.1781 H   0  0  0  0  0  0  0  0  0  0  0  0
   -1.0937   44.4210   55.6692 H   0  0  0  0  0  0  0  0  0  0  0  0
   -0.4442   45.9028   54.8700 H   0  0  0  0  0  0  0  0  0  0  0  0
   -1.7558   44.9178   53.2168 H   0  0  0  0  0  0  0  0  0  0  0  0
   -0.4332   41.2153   52.9043 H   0  0  0  0  0  0  0  0  0  0  0  0
   -1.4508   42.1309   51.7493 H   0  0  0  0  0  0  0  0  0  0  0  0
    1.3997   42.6466   52.6329 H   0  0  0  0  0  0  0  0  0  0  0  0
    0.7264   42.8001   51.0271 H   0  0  0  0  0  0  0  0  0  0  0  0
   -0.2346   44.9466   51.5376 H   0  0  0  0  0  0  0  0  0  0  0  0
    2.1570   45.0979   52.0102 H   0  0  0  0  0  0  0  0  0  0  0  0
    1.0277   46.3043   52.8143 H   0  0  0  0  0  0  0  0  0  0  0  0
    9.0265   45.9410   50.7167 H   0  0  0  0  0  0  0  0  0  0  0  0
   11.1710   46.2724   51.9519 H   0  0  0  0  0  0  0  0  0  0  0  0
  1  2  2  0
  2  3  1  0
  3  4  2  0
  4  5  1  0
  5  6  1  0
  6  7  2  0
  7  8  1  0
  8  9  2  0
  9 10  1  0
 10 11  1  0
 11 12  1  0
 12 13  1  0
 13 14  1  0
 14 15  1  0
 15 16  1  0
 16 17  1  0
 17 18  1  0
 18 19  1  0
 19 20  1  0
 10 21  2  0
  4 22  1  0
 22 23  2  0
 23  1  1  0
 21  6  1  0
 20 12  1  0
 19 15  1  0
  1 24  1  0
  2 25  1  0
  3 26  1  0
  7 27  1  0
  8 28  1  0
 11 29  1  0
 12 30  1  1
 13 31  1  0
 13 32  1  0
 14 33  1  0
 14 34  1  0
 15 35  1  6
 17 36  1  0
 17 37  1  0
 18 38  1  0
 18 39  1  0
 19 40  1  6
 20 41  1  0
 20 42  1  0
 22 43  1  0
 23 44  1  0
M  END
>  <meeko>  (2) 
{"is_sidechain": [false], "free_energy": -8.666, "intermolecular_energy": -10.633, "internal_energy": -0.661}

$$$$
ligand_4_conformer_3_docked
     RDKit          3D

 44 47  0  0  0  0  0  0  0  0999 V2000
   10.1930   46.4710   52.2250 C   0  0  0  0  0  0  0  0  0  0  0  0
    9.1490   46.0700   51.3870 C   0  0  0  0  0  0  0  0  0  0  0  0
    7.8310   46.4360   51.6840 C   0  0  0  0  0  0  0  0  0  0  0  0
    7.5510   47.2160   52.8130 C   0  0  0  0  0  0  0  0  0  0  0  0
    6.2160   47.5500   53.0860 O   0  0  0  0  0  0  0  0  0  0  0  0
    5.2830   46.7190   53.7220 C   0  0  0  0  0  0  0  0  0  0  0  0
    5.6500   45.8510   54.7620 C   0  0  0  0  0  0  0  0  0  0  0  0
    4.6610   45.0700   55.3580 C   0  0  0  0  0  0  0  0  0  0  0  0
    3.3750   45.1690   54.9390 N   0  0  0  0  0  0  0  0  0  0  0  0
    3.0250   46.0270   53.9420 C   0  0  0  0  0  0  0  0  0  0  0  0
    1.6620   46.1310   53.5110 N   0  0  0  0  0  0  0  0  0  0  0  0
    1.2030   45.6220   52.2100 C   0  0  2  0  0  0  0  0  0  0  0  0
   -0.3260   45.3890   52.2230 C   0  0  0  0  0  0  0  0  0  0  0  0
   -0.7380   44.3360   51.1940 C   0  0  0  0  0  0  0  0  0  0  0  0
   -0.1650   42.9590   51.5700 C   0  0  2  0  0  0  0  0  0  0  0  0
   -0.9590   42.3840   52.5870 O   0  0  0  0  0  0  0  0  0  0  0  0
   -0.0910   41.8850   53.5770 C   0  0  0  0  0  0  0  0  0  0  0  0
    1.2140   42.6430   53.5040 C   0  0  0  0  0  0  0  0  0  0  0  0
    1.2980   43.0150   52.0480 C   0  0  2  0  0  0  0  0  0  0  0  0
    2.0130   44.3620   51.7940 C   0  0  0  0  0  0  0  0  0  0  0  0
    3.9790   46.7930   53.3490 N   0  0  0  0  0  0  0  0  0  0  0  0
    8.6040   47.6000   53.6640 C   0  0  0  0  0  0  0  0  0  0  0  0
    9.9200   47.2320   53.3640 C   0  0  0  0  0  0  0  0  0  0  0  0
   11.2290   46.1875   51.9878 H   0  0  0  0  0  0  0  0  0  0  0  0
    9.3633   45.4660   50.4930 H   0  0  0  0  0  0  0  0  0  0  0  0
    7.0111   46.1094   51.0274 H   0  0  0  0  0  0  0  0  0  0  0  0
    6.6951   45.7883   55.0994 H   0  0  0  0  0  0  0  0  0  0  0  0
    4.9236   44.3736   56.1680 H   0  0  0  0  0  0  0  0  0  0  0  0
    0.9940   46.6320   54.1400 H   0  0  0  0  0  0  0  0  0  0  0  0
    1.3948   46.3814   51.4376 H   0  0  0  0  0  0  0  0  0  0  0  0
   -0.6277   45.0482   53.2244 H   0  0  0  0  0  0  0  0  0  0  0  0
   -0.8230   46.3364   51.9672 H   0  0  0  0  0  0  0  0  0  0  0  0
   -1.8357   44.2738   51.1599 H   0  0  0  0  0  0  0  0  0  0  0  0
   -0.3429   44.6280   50.2098 H   0  0  0  0  0  0  0  0  0  0  0  0
   -0.1828   42.3484   50.6552 H   0  0  0  0  0  0  0  0  0  0  0  0
   -0.5439   42.0226   54.5699 H   0  0  0  0  0  0  0  0  0  0  0  0
    0.0888   40.8125   53.4117 H   0  0  0  0  0  0  0  0  0  0  0  0
    1.1888   43.5389   54.1417 H   0  0  0  0  0  0  0  0  0  0  0  0
    2.0780   42.0607   53.8569 H   0  0  0  0  0  0  0  0  0  0  0  0
    1.9338   42.3271   51.4713 H   0  0  0  0  0  0  0  0  0  0  0  0
    2.9563   44.3601   52.3598 H   0  0  0  0  0  0  0  0  0  0  0  0
    2.1578   44.4339   50.7059 H   0  0  0  0  0  0  0  0  0  0  0  0
    8.3918   48.1909   54.5672 H   0  0  0  0  0  0  0  0  0  0  0  0
   10.7414   47.5426   54.0265 H   0  0  0  0  0  0  0  0  0  0  0  0
  1  2  2  0
  2  3  1  0
  3  4  2  0
  4  5  1  0
  5  6  1  0
  6  7  2  0
  7  8  1  0
  8  9  2  0
  9 10  1  0
 10 11  1  0
 11 12  1  0
 12 13  1  0
 13 14  1  0
 14 15  1  0
 15 16  1  0
 16 17  1  0
 17 18  1  0
 18 19  1  0
 19 20  1  0
 10 21  2  0
  4 22  1  0
 22 23  2  0
 23  1  1  0
 21  6  1  0
 20 12  1  0
 19 15  1  0
  1 24  1  0
  2 25  1  0
  3 26  1  0
  7 27  1  0
  8 28  1  0
 11 29  1  0
 12 30  1  6
 13 31  1  0
 13 32  1  0
 14 33  1  0
 14 34  1  0
 15 35  1  6
 17 36  1  0
 17 37  1  0
 18 38  1  0
 18 39  1  0
 19 40  1  6
 20 41  1  0
 20 42  1  0
 22 43  1  0
 23 44  1  0
M  END
>  <meeko>  (3) 
{"is_sidechain": [false], "free_energy": -8.659, "intermolecular_energy": -10.618, "internal_energy": -0.667}

$$$$
ligand_4_conformer_3_docked
     RDKit          3D

 44 47  0  0  0  0  0  0  0  0999 V2000
    9.2100   47.8950   54.0890 C   0  0  0  0  0  0  0  0  0  0  0  0
   10.0050   46.7640   53.8840 C   0  0  0  0  0  0  0  0  0  0  0  0
    9.8940   46.0360   52.6940 C   0  0  0  0  0  0  0  0  0  0  0  0
    8.9990   46.4410   51.6960 C   0  0  0  0  0  0  0  0  0  0  0  0
    8.9060   45.6770   50.5240 O   0  0  0  0  0  0  0  0  0  0  0  0
    7.8560   44.8050   50.2020 C   0  0  0  0  0  0  0  0  0  0  0  0
    7.9900   43.8150   49.2170 C   0  0  0  0  0  0  0  0  0  0  0  0
    6.9080   42.9730   48.9670 C   0  0  0  0  0  0  0  0  0  0  0  0
    5.7610   43.1130   49.6800 N   0  0  0  0  0  0  0  0  0  0  0  0
    5.6470   44.0650   50.6450 C   0  0  0  0  0  0  0  0  0  0  0  0
    4.4350   44.2010   51.3980 N   0  0  0  0  0  0  0  0  0  0  0  0
    4.1690   45.3570   52.2670 C   0  0  2  0  0  0  0  0  0  0  0  0
    4.3260   44.9690   53.7560 C   0  0  0  0  0  0  0  0  0  0  0  0
    3.5010   45.8840   54.6610 C   0  0  0  0  0  0  0  0  0  0  0  0
    1.9980   45.6920   54.3990 C   0  0  2  0  0  0  0  0  0  0  0  0
    1.5560   44.5210   55.0550 O   0  0  0  0  0  0  0  0  0  0  0  0
    0.7730   43.7900   54.1410 C   0  0  0  0  0  0  0  0  0  0  0  0
    1.1830   44.1690   52.7370 C   0  0  0  0  0  0  0  0  0  0  0  0
    1.6460   45.5920   52.9030 C   0  0  2  0  0  0  0  0  0  0  0  0
    2.7870   45.9870   51.9390 C   0  0  0  0  0  0  0  0  0  0  0  0
    6.6930   44.8950   50.8980 N   0  0  0  0  0  0  0  0  0  0  0  0
    8.1870   47.5700   51.9160 C   0  0  0  0  0  0  0  0  0  0  0  0
    8.2990   48.2960   53.1070 C   0  0  0  0  0  0  0  0  0  0  0  0
    9.3009   48.4695   55.0226 H   0  0  0  0  0  0  0  0  0  0  0  0
   10.7184   46.4459   54.6585 H   0  0  0  0  0  0  0  0  0  0  0  0
   10.5137   45.1400   52.5416 H   0  0  0  0  0  0  0  0  0  0  0  0
    8.9288   43.7057   48.6542 H   0  0  0  0  0  0  0  0  0  0  0  0
    6.9832   42.1955   48.1925 H   0  0  0  0  0  0  0  0  0  0  0  0
    3.7460   43.4160   51.3490 H   0  0  0  0  0  0  0  0  0  0  0  0
    4.9188   46.1371   52.0686 H   0  0  0  0  0  0  0  0  0  0  0  0
    3.9882   43.9311   53.8929 H   0  0  0  0  0  0  0  0  0  0  0  0
    5.3858   45.0742   54.0312 H   0  0  0  0  0  0  0  0  0  0  0  0
    3.7183   45.6441   55.7123 H   0  0  0  0  0  0  0  0  0  0  0  0
    3.7677   46.9294   54.4463 H   0  0  0  0  0  0  0  0  0  0  0  0
    1.4908   46.5861   54.7907 H   0  0  0  0  0  0  0  0  0  0  0  0
    0.9338   42.7128   54.2951 H   0  0  0  0  0  0  0  0  0  0  0  0
   -0.2919   44.0190   54.2942 H   0  0  0  0  0  0  0  0  0  0  0  0
    1.9983   43.5259   52.3741 H   0  0  0  0  0  0  0  0  0  0  0  0
    0.3750   44.0550   51.9994 H   0  0  0  0  0  0  0  0  0  0  0  0
    0.8732   46.3238   52.6251 H   0  0  0  0  0  0  0  0  0  0  0  0
    2.5008   45.6733   50.9243 H   0  0  0  0  0  0  0  0  0  0  0  0
    2.9126   47.0752   52.0396 H   0  0  0  0  0  0  0  0  0  0  0  0
    7.4625   47.8822   51.1494 H   0  0  0  0  0  0  0  0  0  0  0  0
    7.6696   49.1832   53.2709 H   0  0  0  0  0  0  0  0  0  0  0  0
  1  2  2  0
  2  3  1  0
  3  4  2  0
  4  5  1  0
  5  6  1  0
  6  7  2  0
  7  8  1  0
  8  9  2  0
  9 10  1  0
 10 11  1  0
 11 12  1  0
 12 13  1  0
 13 14  1  0
 14 15  1  0
 15 16  1  0
 16 17  1  0
 17 18  1  0
 18 19  1  0
 19 20  1  0
 10 21  2  0
  4 22  1  0
 22 23  2  0
 23  1  1  0
 21  6  1  0
 20 12  1  0
 19 15  1  0
  1 24  1  0
  2 25  1  0
  3 26  1  0
  7 27  1  0
  8 28  1  0
 11 29  1  0
 12 30  1  6
 13 31  1  0
 13 32  1  0
 14 33  1  0
 14 34  1  0
 15 35  1  1
 17 36  1  0
 17 37  1  0
 18 38  1  0
 18 39  1  0
 19 40  1  1
 20 41  1  0
 20 42  1  0
 22 43  1  0
 23 44  1  0
M  END
>  <meeko>  (4) 
{"is_sidechain": [false], "free_energy": -8.625, "intermolecular_energy": -10.762, "internal_energy": -0.482}

$$$$
ligand_4_conformer_3_docked
     RDKit          3D

 44 47  0  0  0  0  0  0  0  0999 V2000
    6.7480   42.5550   49.0190 C   0  0  0  0  0  0  0  0  0  0  0  0
    5.9530   41.5070   49.4890 C   0  0  0  0  0  0  0  0  0  0  0  0
    5.0340   41.7320   50.5210 C   0  0  0  0  0  0  0  0  0  0  0  0
    4.8950   43.0090   51.0790 C   0  0  0  0  0  0  0  0  0  0  0  0
    3.9750   43.1920   52.1220 O   0  0  0  0  0  0  0  0  0  0  0  0
    4.0630   44.1700   53.1230 C   0  0  0  0  0  0  0  0  0  0  0  0
    2.9300   44.6330   53.8080 C   0  0  0  0  0  0  0  0  0  0  0  0
    3.1010   45.5930   54.8050 C   0  0  0  0  0  0  0  0  0  0  0  0
    4.3440   46.0480   55.1020 N   0  0  0  0  0  0  0  0  0  0  0  0
    5.4390   45.5800   54.4440 C   0  0  0  0  0  0  0  0  0  0  0  0
    6.7490   46.0610   54.7690 N   0  0  0  0  0  0  0  0  0  0  0  0
    7.2820   47.3240   54.2400 C   0  0  2  0  0  0  0  0  0  0  0  0
    7.0170   47.4350   52.7200 C   0  0  0  0  0  0  0  0  0  0  0  0
    8.0320   48.3560   52.0430 C   0  0  0  0  0  0  0  0  0  0  0  0
    9.4440   47.7500   52.1140 C   0  0  2  0  0  0  0  0  0  0  0  0
    9.5750   46.7520   51.1230 O   0  0  0  0  0  0  0  0  0  0  0  0
   10.1630   45.6240   51.7260 C   0  0  0  0  0  0  0  0  0  0  0  0
    9.8750   45.6620   53.2090 C   0  0  0  0  0  0  0  0  0  0  0  0
    9.7780   47.1390   53.4870 C   0  0  2  0  0  0  0  0  0  0  0  0
    8.7820   47.4900   54.6150 C   0  0  0  0  0  0  0  0  0  0  0  0
    5.2880   44.6460   53.4670 N   0  0  0  0  0  0  0  0  0  0  0  0
    5.7130   44.0570   50.6140 C   0  0  0  0  0  0  0  0  0  0  0  0
    6.6310   43.8280   49.5830 C   0  0  0  0  0  0  0  0  0  0  0  0
    7.4662   42.3781   48.2048 H   0  0  0  0  0  0  0  0  0  0  0  0
    6.0491   40.5039   49.0478 H   0  0  0  0  0  0  0  0  0  0  0  0
    4.4178   40.9013   50.8956 H   0  0  0  0  0  0  0  0  0  0  0  0
    1.9290   44.2475   53.5643 H   0  0  0  0  0  0  0  0  0  0  0  0
    2.2282   45.9812   55.3504 H   0  0  0  0  0  0  0  0  0  0  0  0
    7.3500   45.4530   55.3720 H   0  0  0  0  0  0  0  0  0  0  0  0
    6.7507   48.1644   54.7107 H   0  0  0  0  0  0  0  0  0  0  0  0
    7.0868   46.4335   52.2704 H   0  0  0  0  0  0  0  0  0  0  0  0
    6.0127   47.8593   52.5736 H   0  0  0  0  0  0  0  0  0  0  0  0
    7.7496   48.4923   50.9886 H   0  0  0  0  0  0  0  0  0  0  0  0
    8.0350   49.3247   52.5642 H   0  0  0  0  0  0  0  0  0  0  0  0
   10.1516   48.5753   51.9463 H   0  0  0  0  0  0  0  0  0  0  0  0
    9.7386   44.7077   51.2899 H   0  0  0  0  0  0  0  0  0  0  0  0
   11.2496   45.6312   51.5549 H   0  0  0  0  0  0  0  0  0  0  0  0
    8.9295   45.1509   53.4431 H   0  0  0  0  0  0  0  0  0  0  0  0
   10.6373   45.1517   53.8160 H   0  0  0  0  0  0  0  0  0  0  0  0
   10.7113   47.5566   53.8926 H   0  0  0  0  0  0  0  0  0  0  0  0
    8.9939   46.8358   55.4736 H   0  0  0  0  0  0  0  0  0  0  0  0
    8.9285   48.5579   54.8343 H   0  0  0  0  0  0  0  0  0  0  0  0
    5.6300   45.0580   51.0624 H   0  0  0  0  0  0  0  0  0  0  0  0
    7.2614   44.6513   49.2160 H   0  0  0  0  0  0  0  0  0  0  0  0
  1  2  2  0
  2  3  1  0
  3  4  2  0
  4  5  1  0
  5  6  1  0
  6  7  2  0
  7  8  1  0
  8  9  2  0
  9 10  1  0
 10 11  1  0
 11 12  1  0
 12 13  1  0
 13 14  1  0
 14 15  1  0
 15 16  1  0
 16 17  1  0
 17 18  1  0
 18 19  1  0
 19 20  1  0
 10 21  2  0
  4 22  1  0
 22 23  2  0
 23  1  1  0
 21  6  1  0
 20 12  1  0
 19 15  1  0
  1 24  1  0
  2 25  1  0
  3 26  1  0
  7 27  1  0
  8 28  1  0
 11 29  1  0
 12 30  1  1
 13 31  1  0
 13 32  1  0
 14 33  1  0
 14 34  1  0
 15 35  1  6
 17 36  1  0
 17 37  1  0
 18 38  1  0
 18 39  1  0
 19 40  1  1
 20 41  1  0
 20 42  1  0
 22 43  1  0
 23 44  1  0
M  END
>  <meeko>  (5) 
{"is_sidechain": [false], "free_energy": -8.343, "intermolecular_energy": -10.591, "internal_energy": -0.306}

$$$$
