ligand_29_conformer_3_docked
     RDKit          3D

 46 48  0  0  0  0  0  0  0  0999 V2000
   10.5290   47.4040   55.5270 C   0  0  0  0  0  0  0  0  0  0  0  0
    9.8290   47.2370   54.2120 C   0  0  0  0  0  0  0  0  0  0  0  0
   10.5190   46.7290   53.1010 C   0  0  0  0  0  0  0  0  0  0  0  0
    9.8550   46.5410   51.8860 C   0  0  0  0  0  0  0  0  0  0  0  0
    8.4980   46.8540   51.7720 C   0  0  0  0  0  0  0  0  0  0  0  0
    7.7920   47.3550   52.8780 C   0  0  0  0  0  0  0  0  0  0  0  0
    6.3340   47.7190   52.7460 C   0  0  0  0  0  0  0  0  0  0  0  0
    5.4570   46.9090   53.7190 C   0  0  1  0  0  0  0  0  0  0  0  0
    4.5600   47.8500   54.5410 C   0  0  0  0  0  0  0  0  0  0  0  0
    4.2260   48.9880   53.7930 O   0  0  0  0  0  0  0  0  0  0  0  0
    4.6260   45.9500   52.9790 N   0  0  0  0  0  0  0  0  0  0  0  0
    4.3720   44.6180   53.4560 C   0  0  0  0  0  0  0  0  0  0  0  0
    5.0200   44.1670   54.4400 O   0  0  0  0  0  0  0  0  0  0  0  0
    3.3000   43.7860   52.8730 C   0  0  0  0  0  0  0  0  0  0  0  0
    2.0090   43.7070   53.3550 C   0  0  0  0  0  0  0  0  0  0  0  0
    1.2790   42.9620   52.5070 N   0  0  0  0  0  0  0  0  0  0  0  0
    2.0390   42.5480   51.5070 N   0  0  0  0  0  0  0  0  0  0  0  0
    3.2820   43.0310   51.7040 C   0  0  0  0  0  0  0  0  0  0  0  0
    4.4170   42.6770   50.8310 C   0  0  0  0  0  0  0  0  0  0  0  0
    4.4320   41.4560   50.1380 C   0  0  0  0  0  0  0  0  0  0  0  0
    5.4950   41.1430   49.2860 C   0  0  0  0  0  0  0  0  0  0  0  0
    6.5460   42.0490   49.1150 C   0  0  0  0  0  0  0  0  0  0  0  0
    6.5290   43.2750   49.7870 C   0  0  0  0  0  0  0  0  0  0  0  0
    7.8410   44.4160   49.5620 Cl  0  0  0  0  0  0  0  0  0  0  0  0
    5.4620   43.5930   50.6360 C   0  0  0  0  0  0  0  0  0  0  0  0
    8.4610   47.5280   54.1000 C   0  0  0  0  0  0  0  0  0  0  0  0
    9.8153   47.2337   56.3465 H   0  0  0  0  0  0  0  0  0  0  0  0
   11.3511   46.6768   55.5997 H   0  0  0  0  0  0  0  0  0  0  0  0
   10.9343   48.4240   55.5997 H   0  0  0  0  0  0  0  0  0  0  0  0
   11.5865   46.4778   53.1867 H   0  0  0  0  0  0  0  0  0  0  0  0
   10.4018   46.1457   51.0173 H   0  0  0  0  0  0  0  0  0  0  0  0
    7.9807   46.7075   50.8124 H   0  0  0  0  0  0  0  0  0  0  0  0
    6.2125   48.7904   52.9634 H   0  0  0  0  0  0  0  0  0  0  0  0
    6.0132   47.4875   51.7196 H   0  0  0  0  0  0  0  0  0  0  0  0
    6.1172   46.3566   54.4038 H   0  0  0  0  0  0  0  0  0  0  0  0
    3.6389   47.3183   54.8219 H   0  0  0  0  0  0  0  0  0  0  0  0
    5.1062   48.1646   55.4425 H   0  0  0  0  0  0  0  0  0  0  0  0
    3.3780   49.3400   54.1700 H   0  0  0  0  0  0  0  0  0  0  0  0
    4.1480   46.2850   52.1140 H   0  0  0  0  0  0  0  0  0  0  0  0
    1.6392   44.1755   54.2790 H   0  0  0  0  0  0  0  0  0  0  0  0
    0.2640   42.7400   52.6050 H   0  0  0  0  0  0  0  0  0  0  0  0
    3.6041   40.7431   50.2660 H   0  0  0  0  0  0  0  0  0  0  0  0
    5.5046   40.1828   48.7495 H   0  0  0  0  0  0  0  0  0  0  0  0
    7.3865   41.7972   48.4516 H   0  0  0  0  0  0  0  0  0  0  0  0
    5.4428   44.5643   51.1520 H   0  0  0  0  0  0  0  0  0  0  0  0
    7.9080   47.8949   54.9772 H   0  0  0  0  0  0  0  0  0  0  0  0
  1  2  1  0
  2  3  2  0
  3  4  1  0
  4  5  2  0
  5  6  1  0
  6  7  1  0
  7  8  1  0
  8  9  1  0
  9 10  1  0
  8 11  1  0
 11 12  1  0
 12 13  2  0
 12 14  1  0
 14 15  2  0
 15 16  1  0
 16 17  1  0
 17 18  2  0
 18 19  1  0
 19 20  2  0
 20 21  1  0
 21 22  2  0
 22 23  1  0
 23 24  1  0
 23 25  2  0
  6 26  2  0
 26  2  1  0
 18 14  1  0
 25 19  1  0
  1 27  1  0
  1 28  1  0
  1 29  1  0
  3 30  1  0
  4 31  1  0
  5 32  1  0
  7 33  1  0
  7 34  1  0
  8 35  1  1
  9 36  1  0
  9 37  1  0
 10 38  1  0
 11 39  1  0
 15 40  1  0
 16 41  1  0
 20 42  1  0
 21 43  1  0
 22 44  1  0
 25 45  1  0
 26 46  1  0
M  END
>  <meeko>  (1) 
{"is_sidechain": [false], "free_energy": -9.625, "intermolecular_energy": -13.283, "internal_energy": -0.749}

$$$$
ligand_29_conformer_3_docked
     RDKit          3D

 46 48  0  0  0  0  0  0  0  0999 V2000
   10.5090   47.4110   55.4110 C   0  0  0  0  0  0  0  0  0  0  0  0
    9.7980   47.1370   54.1200 C   0  0  0  0  0  0  0  0  0  0  0  0
   10.5130   46.6930   52.9970 C   0  0  0  0  0  0  0  0  0  0  0  0
    9.8430   46.4030   51.8060 C   0  0  0  0  0  0  0  0  0  0  0  0
    8.4540   46.5480   51.7280 C   0  0  0  0  0  0  0  0  0  0  0  0
    7.7250   46.9820   52.8470 C   0  0  0  0  0  0  0  0  0  0  0  0
    6.2300   47.1650   52.7540 C   0  0  0  0  0  0  0  0  0  0  0  0
    5.4870   46.3040   53.7910 C   0  0  1  0  0  0  0  0  0  0  0  0
    4.2360   47.0390   54.3010 C   0  0  0  0  0  0  0  0  0  0  0  0
    4.5830   48.2940   54.8220 O   0  0  0  0  0  0  0  0  0  0  0  0
    5.1020   45.0140   53.2030 N   0  0  0  0  0  0  0  0  0  0  0  0
    4.7710   44.8670   51.8110 C   0  0  0  0  0  0  0  0  0  0  0  0
    4.6160   45.8890   51.0890 O   0  0  0  0  0  0  0  0  0  0  0  0
    4.6940   43.5350   51.1790 C   0  0  0  0  0  0  0  0  0  0  0  0
    5.7220   42.9270   50.4850 C   0  0  0  0  0  0  0  0  0  0  0  0
    5.3430   41.6780   50.1650 N   0  0  0  0  0  0  0  0  0  0  0  0
    4.1180   41.4540   50.6070 N   0  0  0  0  0  0  0  0  0  0  0  0
    3.6900   42.5720   51.2280 C   0  0  0  0  0  0  0  0  0  0  0  0
    2.3200   42.7110   51.7540 C   0  0  0  0  0  0  0  0  0  0  0  0
    2.0770   42.6650   53.1360 C   0  0  0  0  0  0  0  0  0  0  0  0
    0.7780   42.8320   53.6280 C   0  0  0  0  0  0  0  0  0  0  0  0
   -0.2830   43.0510   52.7460 C   0  0  0  0  0  0  0  0  0  0  0  0
   -0.0460   43.1170   51.3690 C   0  0  0  0  0  0  0  0  0  0  0  0
   -1.3760   43.4060   50.2640 Cl  0  0  0  0  0  0  0  0  0  0  0  0
    1.2540   42.9570   50.8750 C   0  0  0  0  0  0  0  0  0  0  0  0
    8.4020   47.2590   54.0450 C   0  0  0  0  0  0  0  0  0  0  0  0
    9.8495   47.1569   56.2539 H   0  0  0  0  0  0  0  0  0  0  0  0
   11.4226   46.8005   55.4632 H   0  0  0  0  0  0  0  0  0  0  0  0
   10.7766   48.4767   55.4632 H   0  0  0  0  0  0  0  0  0  0  0  0
   11.6049   46.5729   53.0548 H   0  0  0  0  0  0  0  0  0  0  0  0
   10.4091   46.0598   50.9275 H   0  0  0  0  0  0  0  0  0  0  0  0
    7.9311   46.3214   50.7872 H   0  0  0  0  0  0  0  0  0  0  0  0
    5.9885   48.2236   52.9304 H   0  0  0  0  0  0  0  0  0  0  0  0
    5.9070   46.8496   51.7509 H   0  0  0  0  0  0  0  0  0  0  0  0
    6.1639   46.1222   54.6388 H   0  0  0  0  0  0  0  0  0  0  0  0
    3.5310   47.1752   53.4677 H   0  0  0  0  0  0  0  0  0  0  0  0
    3.7703   46.4393   55.0969 H   0  0  0  0  0  0  0  0  0  0  0  0
    4.4560   48.9530   54.0900 H   0  0  0  0  0  0  0  0  0  0  0  0
    5.1450   44.1690   53.8130 H   0  0  0  0  0  0  0  0  0  0  0  0
    6.6891   43.3881   50.2359 H   0  0  0  0  0  0  0  0  0  0  0  0
    5.9190   40.9770   49.6490 H   0  0  0  0  0  0  0  0  0  0  0  0
    2.9104   42.4972   53.8340 H   0  0  0  0  0  0  0  0  0  0  0  0
    0.5918   42.7908   54.7113 H   0  0  0  0  0  0  0  0  0  0  0  0
   -1.3050   43.1716   53.1345 H   0  0  0  0  0  0  0  0  0  0  0  0
    1.4408   43.0244   49.7931 H   0  0  0  0  0  0  0  0  0  0  0  0
    7.8336   47.5743   54.9324 H   0  0  0  0  0  0  0  0  0  0  0  0
  1  2  1  0
  2  3  2  0
  3  4  1  0
  4  5  2  0
  5  6  1  0
  6  7  1  0
  7  8  1  0
  8  9  1  0
  9 10  1  0
  8 11  1  0
 11 12  1  0
 12 13  2  0
 12 14  1  0
 14 15  2  0
 15 16  1  0
 16 17  1  0
 17 18  2  0
 18 19  1  0
 19 20  2  0
 20 21  1  0
 21 22  2  0
 22 23  1  0
 23 24  1  0
 23 25  2  0
  6 26  2  0
 26  2  1  0
 18 14  1  0
 25 19  1  0
  1 27  1  0
  1 28  1  0
  1 29  1  0
  3 30  1  0
  4 31  1  0
  5 32  1  0
  7 33  1  0
  7 34  1  0
  8 35  1  1
  9 36  1  0
  9 37  1  0
 10 38  1  0
 11 39  1  0
 15 40  1  0
 16 41  1  0
 20 42  1  0
 21 43  1  0
 22 44  1  0
 25 45  1  0
 26 46  1  0
M  END
>  <meeko>  (2) 
{"is_sidechain": [false], "free_energy": -9.119, "intermolecular_energy": -13.019, "internal_energy": -0.313}

$$$$
ligand_29_conformer_3_docked
     RDKit          3D

 46 48  0  0  0  0  0  0  0  0999 V2000
   10.1460   47.3470   54.8740 C   0  0  0  0  0  0  0  0  0  0  0  0
    9.3120   46.9660   53.6880 C   0  0  0  0  0  0  0  0  0  0  0  0
    9.9220   46.5070   52.5100 C   0  0  0  0  0  0  0  0  0  0  0  0
    9.1410   46.1190   51.4190 C   0  0  0  0  0  0  0  0  0  0  0  0
    7.7470   46.1820   51.4960 C   0  0  0  0  0  0  0  0  0  0  0  0
    7.1230   46.6300   52.6710 C   0  0  0  0  0  0  0  0  0  0  0  0
    5.6190   46.7240   52.7440 C   0  0  0  0  0  0  0  0  0  0  0  0
    5.1170   46.6860   54.1980 C   0  0  1  0  0  0  0  0  0  0  0  0
    4.5060   48.0420   54.5900 C   0  0  0  0  0  0  0  0  0  0  0  0
    4.2410   48.8090   53.4470 O   0  0  0  0  0  0  0  0  0  0  0  0
    4.1170   45.6230   54.3660 N   0  0  0  0  0  0  0  0  0  0  0  0
    2.9440   45.5260   53.5390 C   0  0  0  0  0  0  0  0  0  0  0  0
    2.6410   46.4730   52.7640 O   0  0  0  0  0  0  0  0  0  0  0  0
    2.1260   44.2970   53.5110 C   0  0  0  0  0  0  0  0  0  0  0  0
    0.9960   44.0810   54.2740 C   0  0  0  0  0  0  0  0  0  0  0  0
    0.4380   42.9180   53.8960 N   0  0  0  0  0  0  0  0  0  0  0  0
    1.1590   42.3680   52.9330 N   0  0  0  0  0  0  0  0  0  0  0  0
    2.2010   43.1850   52.6780 C   0  0  0  0  0  0  0  0  0  0  0  0
    3.2710   42.8300   51.7270 C   0  0  0  0  0  0  0  0  0  0  0  0
    4.5230   43.4620   51.7900 C   0  0  0  0  0  0  0  0  0  0  0  0
    5.5420   43.0950   50.9060 C   0  0  0  0  0  0  0  0  0  0  0  0
    5.3210   42.0920   49.9590 C   0  0  0  0  0  0  0  0  0  0  0  0
    4.0830   41.4440   49.9020 C   0  0  0  0  0  0  0  0  0  0  0  0
    3.8110   40.1770   48.7210 Cl  0  0  0  0  0  0  0  0  0  0  0  0
    3.0630   41.8060   50.7900 C   0  0  0  0  0  0  0  0  0  0  0  0
    7.9130   47.0050   53.7690 C   0  0  0  0  0  0  0  0  0  0  0  0
    9.6037   47.0993   55.7984 H   0  0  0  0  0  0  0  0  0  0  0  0
   11.0963   46.7937   54.8469 H   0  0  0  0  0  0  0  0  0  0  0  0
   10.3499   48.4276   54.8469 H   0  0  0  0  0  0  0  0  0  0  0  0
   11.0188   46.4527   52.4459 H   0  0  0  0  0  0  0  0  0  0  0  0
    9.6242   45.7631   50.4971 H   0  0  0  0  0  0  0  0  0  0  0  0
    7.1364   45.8794   50.6325 H   0  0  0  0  0  0  0  0  0  0  0  0
    5.2978   47.6684   52.2804 H   0  0  0  0  0  0  0  0  0  0  0  0
    5.1949   45.8598   52.2118 H   0  0  0  0  0  0  0  0  0  0  0  0
    5.9745   46.4776   54.8548 H   0  0  0  0  0  0  0  0  0  0  0  0
    3.5672   47.8715   55.1374 H   0  0  0  0  0  0  0  0  0  0  0  0
    5.2216   48.5848   55.2251 H   0  0  0  0  0  0  0  0  0  0  0  0
    4.1520   49.7510   53.7480 H   0  0  0  0  0  0  0  0  0  0  0  0
    4.3140   44.8740   55.0660 H   0  0  0  0  0  0  0  0  0  0  0  0
    0.6155   44.7494   55.0604 H   0  0  0  0  0  0  0  0  0  0  0  0
   -0.4340   42.5010   54.2880 H   0  0  0  0  0  0  0  0  0  0  0  0
    4.7028   44.2487   52.5375 H   0  0  0  0  0  0  0  0  0  0  0  0
    6.5195   43.5969   50.9562 H   0  0  0  0  0  0  0  0  0  0  0  0
    6.1210   41.8118   49.2579 H   0  0  0  0  0  0  0  0  0  0  0  0
    2.0945   41.2857   50.7532 H   0  0  0  0  0  0  0  0  0  0  0  0
    7.4300   47.3324   54.7015 H   0  0  0  0  0  0  0  0  0  0  0  0
  1  2  1  0
  2  3  2  0
  3  4  1  0
  4  5  2  0
  5  6  1  0
  6  7  1  0
  7  8  1  0
  8  9  1  0
  9 10  1  0
  8 11  1  0
 11 12  1  0
 12 13  2  0
 12 14  1  0
 14 15  2  0
 15 16  1  0
 16 17  1  0
 17 18  2  0
 18 19  1  0
 19 20  2  0
 20 21  1  0
 21 22  2  0
 22 23  1  0
 23 24  1  0
 23 25  2  0
  6 26  2  0
 26  2  1  0
 18 14  1  0
 25 19  1  0
  1 27  1  0
  1 28  1  0
  1 29  1  0
  3 30  1  0
  4 31  1  0
  5 32  1  0
  7 33  1  0
  7 34  1  0
  8 35  1  1
  9 36  1  0
  9 37  1  0
 10 38  1  0
 11 39  1  0
 15 40  1  0
 16 41  1  0
 20 42  1  0
 21 43  1  0
 22 44  1  0
 25 45  1  0
 26 46  1  0
M  END
>  <meeko>  (3) 
{"is_sidechain": [false], "free_energy": -8.887, "intermolecular_energy": -12.415, "internal_energy": -0.598}

$$$$
ligand_29_conformer_3_docked
     RDKit          3D

 46 48  0  0  0  0  0  0  0  0999 V2000
    3.2400   39.7270   46.9160 C   0  0  0  0  0  0  0  0  0  0  0  0
    4.0920   40.5490   47.8370 C   0  0  0  0  0  0  0  0  0  0  0  0
    5.2630   41.1590   47.3630 C   0  0  0  0  0  0  0  0  0  0  0  0
    6.0350   41.9540   48.2130 C   0  0  0  0  0  0  0  0  0  0  0  0
    5.6430   42.1500   49.5400 C   0  0  0  0  0  0  0  0  0  0  0  0
    4.4690   41.5520   50.0260 C   0  0  0  0  0  0  0  0  0  0  0  0
    4.0610   41.7410   51.4660 C   0  0  0  0  0  0  0  0  0  0  0  0
    3.2390   43.0280   51.6600 C   0  0  1  0  0  0  0  0  0  0  0  0
    1.8460   42.6960   52.2210 C   0  0  0  0  0  0  0  0  0  0  0  0
    1.9440   42.2650   53.5520 O   0  0  0  0  0  0  0  0  0  0  0  0
    3.9360   43.9470   52.5700 N   0  0  0  0  0  0  0  0  0  0  0  0
    4.3610   45.2600   52.1660 C   0  0  0  0  0  0  0  0  0  0  0  0
    4.3190   45.5900   50.9500 O   0  0  0  0  0  0  0  0  0  0  0  0
    4.7700   46.2720   53.1610 C   0  0  0  0  0  0  0  0  0  0  0  0
    3.9290   46.8620   54.0820 C   0  0  0  0  0  0  0  0  0  0  0  0
    4.6630   47.6300   54.9050 N   0  0  0  0  0  0  0  0  0  0  0  0
    5.9360   47.5740   54.5520 N   0  0  0  0  0  0  0  0  0  0  0  0
    6.0350   46.7560   53.4850 C   0  0  0  0  0  0  0  0  0  0  0  0
    7.3040   46.5440   52.7640 C   0  0  0  0  0  0  0  0  0  0  0  0
    8.5000   47.1030   53.2420 C   0  0  0  0  0  0  0  0  0  0  0  0
    9.7030   46.8690   52.5700 C   0  0  0  0  0  0  0  0  0  0  0  0
    9.7220   46.0720   51.4230 C   0  0  0  0  0  0  0  0  0  0  0  0
    8.5380   45.4970   50.9500 C   0  0  0  0  0  0  0  0  0  0  0  0
    8.5650   44.4870   49.5170 Cl  0  0  0  0  0  0  0  0  0  0  0  0
    7.3330   45.7250   51.6250 C   0  0  0  0  0  0  0  0  0  0  0  0
    3.6890   40.7660   49.1630 C   0  0  0  0  0  0  0  0  0  0  0  0
    2.5734   39.0839   47.5094 H   0  0  0  0  0  0  0  0  0  0  0  0
    2.6373   40.3935   46.2816 H   0  0  0  0  0  0  0  0  0  0  0  0
    3.8845   39.1008   46.2816 H   0  0  0  0  0  0  0  0  0  0  0  0
    5.5742   41.0107   46.3184 H   0  0  0  0  0  0  0  0  0  0  0  0
    6.9541   42.4272   47.8370 H   0  0  0  0  0  0  0  0  0  0  0  0
    6.2561   42.7748   50.2061 H   0  0  0  0  0  0  0  0  0  0  0  0
    3.4540   40.8793   51.7807 H   0  0  0  0  0  0  0  0  0  0  0  0
    4.9743   41.8223   52.0736 H   0  0  0  0  0  0  0  0  0  0  0  0
    3.1218   43.5147   50.6805 H   0  0  0  0  0  0  0  0  0  0  0  0
    1.2140   43.5952   52.1770 H   0  0  0  0  0  0  0  0  0  0  0  0
    1.4013   41.8910   51.6175 H   0  0  0  0  0  0  0  0  0  0  0  0
    2.7970   42.6260   53.9080 H   0  0  0  0  0  0  0  0  0  0  0  0
    4.0540   43.6520   53.5630 H   0  0  0  0  0  0  0  0  0  0  0  0
    2.8386   46.7263   54.1340 H   0  0  0  0  0  0  0  0  0  0  0  0
    4.3000   48.1890   55.7080 H   0  0  0  0  0  0  0  0  0  0  0  0
    8.4902   47.7269   54.1479 H   0  0  0  0  0  0  0  0  0  0  0  0
   10.6367   47.3134   52.9451 H   0  0  0  0  0  0  0  0  0  0  0  0
   10.6689   45.8965   50.8914 H   0  0  0  0  0  0  0  0  0  0  0  0
    6.4049   45.2601   51.2610 H   0  0  0  0  0  0  0  0  0  0  0  0
    2.7543   40.3167   49.5296 H   0  0  0  0  0  0  0  0  0  0  0  0
  1  2  1  0
  2  3  2  0
  3  4  1  0
  4  5  2  0
  5  6  1  0
  6  7  1  0
  7  8  1  0
  8  9  1  0
  9 10  1  0
  8 11  1  0
 11 12  1  0
 12 13  2  0
 12 14  1  0
 14 15  2  0
 15 16  1  0
 16 17  1  0
 17 18  2  0
 18 19  1  0
 19 20  2  0
 20 21  1  0
 21 22  2  0
 22 23  1  0
 23 24  1  0
 23 25  2  0
  6 26  2  0
 26  2  1  0
 18 14  1  0
 25 19  1  0
  1 27  1  0
  1 28  1  0
  1 29  1  0
  3 30  1  0
  4 31  1  0
  5 32  1  0
  7 33  1  0
  7 34  1  0
  8 35  1  6
  9 36  1  0
  9 37  1  0
 10 38  1  0
 11 39  1  0
 15 40  1  0
 16 41  1  0
 20 42  1  0
 21 43  1  0
 22 44  1  0
 25 45  1  0
 26 46  1  0
M  END
>  <meeko>  (4) 
{"is_sidechain": [false], "free_energy": -8.749, "intermolecular_energy": -12.325, "internal_energy": -0.498}

$$$$
ligand_29_conformer_3_docked
     RDKit          3D

 46 48  0  0  0  0  0  0  0  0999 V2000
   10.3560   47.3960   55.2970 C   0  0  0  0  0  0  0  0  0  0  0  0
    9.5270   47.1340   54.0750 C   0  0  0  0  0  0  0  0  0  0  0  0
   10.1330   46.6850   52.8910 C   0  0  0  0  0  0  0  0  0  0  0  0
    9.3550   46.4070   51.7650 C   0  0  0  0  0  0  0  0  0  0  0  0
    7.9670   46.5690   51.8140 C   0  0  0  0  0  0  0  0  0  0  0  0
    7.3470   47.0080   52.9940 C   0  0  0  0  0  0  0  0  0  0  0  0
    5.8520   47.2090   53.0370 C   0  0  0  0  0  0  0  0  0  0  0  0
    5.1240   45.9510   53.5430 C   0  0  1  0  0  0  0  0  0  0  0  0
    4.7450   46.1100   55.0250 C   0  0  0  0  0  0  0  0  0  0  0  0
    4.7570   44.8650   55.6700 O   0  0  0  0  0  0  0  0  0  0  0  0
    3.9160   45.7050   52.7440 N   0  0  0  0  0  0  0  0  0  0  0  0
    3.2810   44.4160   52.6800 C   0  0  0  0  0  0  0  0  0  0  0  0
    3.8600   43.4040   53.1600 O   0  0  0  0  0  0  0  0  0  0  0  0
    1.9160   44.2610   52.1380 C   0  0  0  0  0  0  0  0  0  0  0  0
    1.6130   44.0250   50.8120 C   0  0  0  0  0  0  0  0  0  0  0  0
    0.2910   43.8100   50.7050 N   0  0  0  0  0  0  0  0  0  0  0  0
   -0.2760   43.9070   51.8960 N   0  0  0  0  0  0  0  0  0  0  0  0
    0.6900   44.1870   52.7940 C   0  0  0  0  0  0  0  0  0  0  0  0
    0.3970   44.4660   54.2120 C   0  0  0  0  0  0  0  0  0  0  0  0
    1.2920   45.2150   54.9930 C   0  0  0  0  0  0  0  0  0  0  0  0
    0.9900   45.5030   56.3270 C   0  0  0  0  0  0  0  0  0  0  0  0
   -0.2070   45.0530   56.8880 C   0  0  0  0  0  0  0  0  0  0  0  0
   -1.1130   44.3230   56.1110 C   0  0  0  0  0  0  0  0  0  0  0  0
   -2.6220   43.7690   56.8120 Cl  0  0  0  0  0  0  0  0  0  0  0  0
   -0.8150   44.0380   54.7730 C   0  0  0  0  0  0  0  0  0  0  0  0
    8.1330   47.2730   54.1260 C   0  0  0  0  0  0  0  0  0  0  0  0
    9.7529   47.2054   56.1970 H   0  0  0  0  0  0  0  0  0  0  0  0
   11.2322   46.7310   55.2952 H   0  0  0  0  0  0  0  0  0  0  0  0
   10.6909   48.4438   55.2952 H   0  0  0  0  0  0  0  0  0  0  0  0
   11.2241   46.5517   52.8500 H   0  0  0  0  0  0  0  0  0  0  0  0
    9.8349   46.0600   50.8380 H   0  0  0  0  0  0  0  0  0  0  0  0
    7.3585   46.3514   50.9239 H   0  0  0  0  0  0  0  0  0  0  0  0
    5.6242   48.0482   53.7107 H   0  0  0  0  0  0  0  0  0  0  0  0
    5.5042   47.4192   52.0148 H   0  0  0  0  0  0  0  0  0  0  0  0
    5.8032   45.0920   53.4393 H   0  0  0  0  0  0  0  0  0  0  0  0
    5.4687   46.7784   55.5143 H   0  0  0  0  0  0  0  0  0  0  0  0
    3.7327   46.5354   55.0903 H   0  0  0  0  0  0  0  0  0  0  0  0
    5.6430   44.4560   55.4880 H   0  0  0  0  0  0  0  0  0  0  0  0
    3.4700   46.5210   52.2700 H   0  0  0  0  0  0  0  0  0  0  0  0
    2.3339   44.0147   49.9812 H   0  0  0  0  0  0  0  0  0  0  0  0
   -0.2260   43.5930   49.8250 H   0  0  0  0  0  0  0  0  0  0  0  0
    2.2336   45.5761   54.5536 H   0  0  0  0  0  0  0  0  0  0  0  0
    1.6968   46.0854   56.9363 H   0  0  0  0  0  0  0  0  0  0  0  0
   -0.4376   45.2725   57.9409 H   0  0  0  0  0  0  0  0  0  0  0  0
   -1.5344   43.4761   54.1593 H   0  0  0  0  0  0  0  0  0  0  0  0
    7.6509   47.5926   55.0617 H   0  0  0  0  0  0  0  0  0  0  0  0
  1  2  1  0
  2  3  2  0
  3  4  1  0
  4  5  2  0
  5  6  1  0
  6  7  1  0
  7  8  1  0
  8  9  1  0
  9 10  1  0
  8 11  1  0
 11 12  1  0
 12 13  2  0
 12 14  1  0
 14 15  2  0
 15 16  1  0
 16 17  1  0
 17 18  2  0
 18 19  1  0
 19 20  2  0
 20 21  1  0
 21 22  2  0
 22 23  1  0
 23 24  1  0
 23 25  2  0
  6 26  2  0
 26  2  1  0
 18 14  1  0
 25 19  1  0
  1 27  1  0
  1 28  1  0
  1 29  1  0
  3 30  1  0
  4 31  1  0
  5 32  1  0
  7 33  1  0
  7 34  1  0
  8 35  1  1
  9 36  1  0
  9 37  1  0
 10 38  1  0
 11 39  1  0
 15 40  1  0
 16 41  1  0
 20 42  1  0
 21 43  1  0
 22 44  1  0
 25 45  1  0
 26 46  1  0
M  END
>  <meeko>  (5) 
{"is_sidechain": [false], "free_energy": -8.705, "intermolecular_energy": -12.101, "internal_energy": -0.66}

$$$$
