ligand_63_conformer_3_docked
     RDKit          3D

 56 57  0  0  0  0  0  0  0  0999 V2000
    1.0350   46.8330   58.4280 C   0  0  0  0  0  0  0  0  0  0  0  0
    1.4580   46.2540   57.1970 O   0  0  0  0  0  0  0  0  0  0  0  0
    0.6650   45.4120   56.4020 C   0  0  0  0  0  0  0  0  0  0  0  0
   -0.6200   45.0920   56.8520 C   0  0  0  0  0  0  0  0  0  0  0  0
   -1.4630   44.2640   56.0860 C   0  0  0  0  0  0  0  0  0  0  0  0
   -2.7640   43.9340   56.4930 O   0  0  0  0  0  0  0  0  0  0  0  0
   -3.0730   43.0200   57.5390 C   0  0  0  0  0  0  0  0  0  0  0  0
   -0.9960   43.7450   54.8720 C   0  0  0  0  0  0  0  0  0  0  0  0
    0.2960   44.0410   54.4230 C   0  0  0  0  0  0  0  0  0  0  0  0
    0.8750   43.4090   52.8850 S   0  0  0  0  0  0  0  0  0  0  0  0
   -0.0970   42.3770   52.3850 O   0  0  0  0  0  0  0  0  0  0  0  0
    0.9750   44.5060   51.8620 O   0  0  0  0  0  0  0  0  0  0  0  0
    2.4250   42.6730   53.1210 N   0  0  0  0  0  0  0  0  0  0  0  0
    3.5890   43.2470   52.5180 C   0  0  0  0  0  0  0  0  0  0  0  0
    4.3380   44.1880   53.2370 C   0  0  0  0  0  0  0  0  0  0  0  0
    5.4580   44.7960   52.6570 C   0  0  0  0  0  0  0  0  0  0  0  0
    6.3590   46.0330   53.5260 S   0  0  0  0  0  0  0  0  0  0  0  0
    5.8750   47.4040   53.1420 O   0  0  0  0  0  0  0  0  0  0  0  0
    6.0930   45.8480   54.9940 O   0  0  0  0  0  0  0  0  0  0  0  0
    8.0840   45.9120   53.2580 N   0  0  0  0  0  0  0  0  0  0  0  0
    8.8560   47.1780   53.1690 C   0  0  0  0  0  0  0  0  0  0  0  0
    9.0120   47.8610   54.5450 C   0  0  0  0  0  0  0  0  0  0  0  0
   10.2670   46.8070   52.6640 C   0  0  0  0  0  0  0  0  0  0  0  0
    8.2320   48.1660   52.1580 C   0  0  0  0  0  0  0  0  0  0  0  0
    5.8510   44.4320   51.3650 C   0  0  0  0  0  0  0  0  0  0  0  0
    5.1150   43.4900   50.6430 C   0  0  0  0  0  0  0  0  0  0  0  0
    3.9750   42.8900   51.2110 C   0  0  0  0  0  0  0  0  0  0  0  0
    3.2170   41.9320   50.5190 O   0  0  0  0  0  0  0  0  0  0  0  0
    3.7690   40.9130   49.6910 C   0  0  0  0  0  0  0  0  0  0  0  0
    1.1190   44.8840   55.1800 C   0  0  0  0  0  0  0  0  0  0  0  0
    1.4548   46.2584   59.2668 H   0  0  0  0  0  0  0  0  0  0  0  0
    1.3870   47.8737   58.4838 H   0  0  0  0  0  0  0  0  0  0  0  0
   -0.0634   46.8140   58.4838 H   0  0  0  0  0  0  0  0  0  0  0  0
   -0.9755   45.4909   57.8135 H   0  0  0  0  0  0  0  0  0  0  0  0
   -2.9085   43.5067   58.5117 H   0  0  0  0  0  0  0  0  0  0  0  0
   -4.1255   42.7111   57.4569 H   0  0  0  0  0  0  0  0  0  0  0  0
   -2.4239   42.1358   57.4569 H   0  0  0  0  0  0  0  0  0  0  0  0
   -1.6497   43.0998   54.2668 H   0  0  0  0  0  0  0  0  0  0  0  0
    2.5470   42.0970   53.9850 H   0  0  0  0  0  0  0  0  0  0  0  0
    4.0441   44.4508   54.2639 H   0  0  0  0  0  0  0  0  0  0  0  0
    8.2290   45.3470   52.3890 H   0  0  0  0  0  0  0  0  0  0  0  0
    8.8433   47.1222   55.3423 H   0  0  0  0  0  0  0  0  0  0  0  0
   10.0275   48.2737   54.6365 H   0  0  0  0  0  0  0  0  0  0  0  0
    8.2763   48.6737   54.6365 H   0  0  0  0  0  0  0  0  0  0  0  0
   10.9302   46.6326   53.5241 H   0  0  0  0  0  0  0  0  0  0  0  0
   10.2097   45.8934   52.0540 H   0  0  0  0  0  0  0  0  0  0  0  0
   10.6665   47.6306   52.0540 H   0  0  0  0  0  0  0  0  0  0  0  0
    7.7216   48.9742   52.7024 H   0  0  0  0  0  0  0  0  0  0  0  0
    9.0245   48.5932   51.5259 H   0  0  0  0  0  0  0  0  0  0  0  0
    7.5057   47.6340   51.5259 H   0  0  0  0  0  0  0  0  0  0  0  0
    6.7443   44.8900   50.9153 H   0  0  0  0  0  0  0  0  0  0  0  0
    5.4277   43.2153   49.6248 H   0  0  0  0  0  0  0  0  0  0  0  0
    4.1983   40.1206   50.3217 H   0  0  0  0  0  0  0  0  0  0  0  0
    2.9778   40.4879   49.0559 H   0  0  0  0  0  0  0  0  0  0  0  0
    4.5572   41.3435   49.0559 H   0  0  0  0  0  0  0  0  0  0  0  0
    2.1266   45.1347   54.8167 H   0  0  0  0  0  0  0  0  0  0  0  0
  1  2  1  0
  2  3  1  0
  3  4  2  0
  4  5  1  0
  5  6  1  0
  6  7  1  0
  5  8  2  0
  8  9  1  0
  9 10  1  0
 10 11  2  0
 10 12  2  0
 10 13  1  0
 13 14  1  0
 14 15  2  0
 15 16  1  0
 16 17  1  0
 17 18  2  0
 17 19  2  0
 17 20  1  0
 20 21  1  0
 21 22  1  0
 21 23  1  0
 21 24  1  0
 16 25  2  0
 25 26  1  0
 26 27  2  0
 27 28  1  0
 28 29  1  0
  9 30  2  0
 30  3  1  0
 27 14  1  0
  1 31  1  0
  1 32  1  0
  1 33  1  0
  4 34  1  0
  7 35  1  0
  7 36  1  0
  7 37  1  0
  8 38  1  0
 13 39  1  0
 15 40  1  0
 20 41  1  0
 22 42  1  0
 22 43  1  0
 22 44  1  0
 23 45  1  0
 23 46  1  0
 23 47  1  0
 24 48  1  0
 24 49  1  0
 24 50  1  0
 25 51  1  0
 26 52  1  0
 29 53  1  0
 29 54  1  0
 29 55  1  0
 30 56  1  0
M  END
>  <meeko>  (1) 
{"is_sidechain": [false], "free_energy": -8.456, "intermolecular_energy": -12.904, "internal_energy": -0.381}

$$$$
ligand_63_conformer_3_docked
     RDKit          3D

 56 57  0  0  0  0  0  0  0  0999 V2000
   -3.4230   44.3040   57.6650 C   0  0  0  0  0  0  0  0  0  0  0  0
   -2.8660   43.8410   56.4380 O   0  0  0  0  0  0  0  0  0  0  0  0
   -1.5690   44.1390   55.9920 C   0  0  0  0  0  0  0  0  0  0  0  0
   -0.7670   44.9630   56.7900 C   0  0  0  0  0  0  0  0  0  0  0  0
    0.5480   45.2820   56.3980 C   0  0  0  0  0  0  0  0  0  0  0  0
    1.3890   46.0890   57.1770 O   0  0  0  0  0  0  0  0  0  0  0  0
    0.9830   46.7670   58.3620 C   0  0  0  0  0  0  0  0  0  0  0  0
    1.0430   44.7800   55.1890 C   0  0  0  0  0  0  0  0  0  0  0  0
    0.2420   43.9740   54.3730 C   0  0  0  0  0  0  0  0  0  0  0  0
    0.8730   43.3220   52.8630 S   0  0  0  0  0  0  0  0  0  0  0  0
   -0.0550   42.2470   52.3700 O   0  0  0  0  0  0  0  0  0  0  0  0
    0.9590   44.3960   51.8140 O   0  0  0  0  0  0  0  0  0  0  0  0
    2.4400   42.6440   53.1480 N   0  0  0  0  0  0  0  0  0  0  0  0
    3.5960   43.2330   52.5450 C   0  0  0  0  0  0  0  0  0  0  0  0
    4.3360   44.1800   53.2670 C   0  0  0  0  0  0  0  0  0  0  0  0
    5.4470   44.8030   52.6870 C   0  0  0  0  0  0  0  0  0  0  0  0
    6.3370   46.0470   53.5590 S   0  0  0  0  0  0  0  0  0  0  0  0
    5.8370   47.4140   53.1800 O   0  0  0  0  0  0  0  0  0  0  0  0
    6.0740   45.8540   55.0260 O   0  0  0  0  0  0  0  0  0  0  0  0
    8.0620   45.9450   53.2880 N   0  0  0  0  0  0  0  0  0  0  0  0
    8.8170   47.2200   53.1800 C   0  0  0  0  0  0  0  0  0  0  0  0
    8.9730   47.9210   54.5460 C   0  0  0  0  0  0  0  0  0  0  0  0
   10.2290   46.8620   52.6690 C   0  0  0  0  0  0  0  0  0  0  0  0
    8.1730   48.1880   52.1610 C   0  0  0  0  0  0  0  0  0  0  0  0
    5.8420   44.4490   51.3930 C   0  0  0  0  0  0  0  0  0  0  0  0
    5.1150   43.5020   50.6680 C   0  0  0  0  0  0  0  0  0  0  0  0
    3.9830   42.8860   51.2360 C   0  0  0  0  0  0  0  0  0  0  0  0
    3.2350   41.9220   50.5410 O   0  0  0  0  0  0  0  0  0  0  0  0
    3.7970   40.9070   49.7160 C   0  0  0  0  0  0  0  0  0  0  0  0
   -1.0560   43.6420   54.7810 C   0  0  0  0  0  0  0  0  0  0  0  0
   -2.8795   43.8523   58.5080 H   0  0  0  0  0  0  0  0  0  0  0  0
   -3.3356   45.3993   57.7172 H   0  0  0  0  0  0  0  0  0  0  0  0
   -4.4839   44.0179   57.7172 H   0  0  0  0  0  0  0  0  0  0  0  0
   -1.1673   45.3654   57.7323 H   0  0  0  0  0  0  0  0  0  0  0  0
    1.3218   46.2013   59.2425 H   0  0  0  0  0  0  0  0  0  0  0  0
    1.4274   47.7731   58.3794 H   0  0  0  0  0  0  0  0  0  0  0  0
   -0.1137   46.8502   58.3794 H   0  0  0  0  0  0  0  0  0  0  0  0
    2.0702   45.0211   54.8779 H   0  0  0  0  0  0  0  0  0  0  0  0
    2.5650   42.1000   54.0330 H   0  0  0  0  0  0  0  0  0  0  0  0
    4.0416   44.4349   54.2957 H   0  0  0  0  0  0  0  0  0  0  0  0
    8.2130   45.3700   52.4270 H   0  0  0  0  0  0  0  0  0  0  0  0
    8.8107   47.1915   55.3531 H   0  0  0  0  0  0  0  0  0  0  0  0
    9.9865   48.3405   54.6293 H   0  0  0  0  0  0  0  0  0  0  0  0
    8.2331   48.7307   54.6293 H   0  0  0  0  0  0  0  0  0  0  0  0
   10.8972   46.6926   53.5262 H   0  0  0  0  0  0  0  0  0  0  0  0
   10.1773   45.9486   52.0583 H   0  0  0  0  0  0  0  0  0  0  0  0
   10.6187   47.6897   52.0583 H   0  0  0  0  0  0  0  0  0  0  0  0
    7.6416   48.9867   52.6993 H   0  0  0  0  0  0  0  0  0  0  0  0
    8.9574   48.6305   51.5294 H   0  0  0  0  0  0  0  0  0  0  0  0
    7.4618   47.6355   51.5294 H   0  0  0  0  0  0  0  0  0  0  0  0
    6.7296   44.9187   50.9440 H   0  0  0  0  0  0  0  0  0  0  0  0
    5.4284   43.2358   49.6477 H   0  0  0  0  0  0  0  0  0  0  0  0
    4.2329   40.1198   50.3487 H   0  0  0  0  0  0  0  0  0  0  0  0
    3.0104   40.4734   49.0809 H   0  0  0  0  0  0  0  0  0  0  0  0
    4.5819   41.3435   49.0809 H   0  0  0  0  0  0  0  0  0  0  0  0
   -1.6774   42.9889   54.1506 H   0  0  0  0  0  0  0  0  0  0  0  0
  1  2  1  0
  2  3  1  0
  3  4  2  0
  4  5  1  0
  5  6  1  0
  6  7  1  0
  5  8  2  0
  8  9  1  0
  9 10  1  0
 10 11  2  0
 10 12  2  0
 10 13  1  0
 13 14  1  0
 14 15  2  0
 15 16  1  0
 16 17  1  0
 17 18  2  0
 17 19  2  0
 17 20  1  0
 20 21  1  0
 21 22  1  0
 21 23  1  0
 21 24  1  0
 16 25  2  0
 25 26  1  0
 26 27  2  0
 27 28  1  0
 28 29  1  0
  9 30  2  0
 30  3  1  0
 27 14  1  0
  1 31  1  0
  1 32  1  0
  1 33  1  0
  4 34  1  0
  7 35  1  0
  7 36  1  0
  7 37  1  0
  8 38  1  0
 13 39  1  0
 15 40  1  0
 20 41  1  0
 22 42  1  0
 22 43  1  0
 22 44  1  0
 23 45  1  0
 23 46  1  0
 23 47  1  0
 24 48  1  0
 24 49  1  0
 24 50  1  0
 25 51  1  0
 26 52  1  0
 29 53  1  0
 29 54  1  0
 29 55  1  0
 30 56  1  0
M  END
>  <meeko>  (2) 
{"is_sidechain": [false], "free_energy": -8.412, "intermolecular_energy": -12.849, "internal_energy": -0.37}

$$$$
ligand_63_conformer_3_docked
     RDKit          3D

 56 57  0  0  0  0  0  0  0  0999 V2000
   -1.2820   46.2350   57.0240 C   0  0  0  0  0  0  0  0  0  0  0  0
   -0.8240   45.0220   56.4320 O   0  0  0  0  0  0  0  0  0  0  0  0
    0.3300   44.9120   55.6400 C   0  0  0  0  0  0  0  0  0  0  0  0
    1.4970   45.5490   56.0750 C   0  0  0  0  0  0  0  0  0  0  0  0
    2.6870   45.4580   55.3270 C   0  0  0  0  0  0  0  0  0  0  0  0
    3.8810   46.0670   55.7380 O   0  0  0  0  0  0  0  0  0  0  0  0
    5.1810   45.6220   55.3670 C   0  0  0  0  0  0  0  0  0  0  0  0
    2.6880   44.7370   54.1270 C   0  0  0  0  0  0  0  0  0  0  0  0
    1.5210   44.1150   53.6710 C   0  0  0  0  0  0  0  0  0  0  0  0
    1.5280   43.1860   52.1740 S   0  0  0  0  0  0  0  0  0  0  0  0
    0.2910   42.3340   52.1230 O   0  0  0  0  0  0  0  0  0  0  0  0
    1.5280   44.1000   50.9800 O   0  0  0  0  0  0  0  0  0  0  0  0
    2.9290   42.1700   52.1440 N   0  0  0  0  0  0  0  0  0  0  0  0
    4.1080   42.5950   51.4520 C   0  0  0  0  0  0  0  0  0  0  0  0
    4.7020   43.8150   51.8020 C   0  0  0  0  0  0  0  0  0  0  0  0
    5.8320   44.2760   51.1150 C   0  0  0  0  0  0  0  0  0  0  0  0
    6.5400   45.8410   51.4980 S   0  0  0  0  0  0  0  0  0  0  0  0
    7.1670   46.4490   50.2740 O   0  0  0  0  0  0  0  0  0  0  0  0
    5.4280   46.7510   51.9420 O   0  0  0  0  0  0  0  0  0  0  0  0
    7.7190   45.7420   52.7870 N   0  0  0  0  0  0  0  0  0  0  0  0
    8.8120   46.7470   52.7970 C   0  0  0  0  0  0  0  0  0  0  0  0
    8.3070   48.1590   52.4300 C   0  0  0  0  0  0  0  0  0  0  0  0
    9.3570   46.8010   54.2400 C   0  0  0  0  0  0  0  0  0  0  0  0
    9.9760   46.3440   51.8630 C   0  0  0  0  0  0  0  0  0  0  0  0
    6.3910   43.4940   50.0990 C   0  0  0  0  0  0  0  0  0  0  0  0
    5.8090   42.2740   49.7480 C   0  0  0  0  0  0  0  0  0  0  0  0
    4.6600   41.8130   50.4190 C   0  0  0  0  0  0  0  0  0  0  0  0
    4.0550   40.5870   50.1000 O   0  0  0  0  0  0  0  0  0  0  0  0
    3.5850   40.2340   48.8030 C   0  0  0  0  0  0  0  0  0  0  0  0
    0.3490   44.1900   54.4330 C   0  0  0  0  0  0  0  0  0  0  0  0
   -1.2477   46.1441   58.1197 H   0  0  0  0  0  0  0  0  0  0  0  0
   -0.6357   47.0658   56.7046 H   0  0  0  0  0  0  0  0  0  0  0  0
   -2.3161   46.4313   56.7046 H   0  0  0  0  0  0  0  0  0  0  0  0
    1.4852   46.1269   57.0109 H   0  0  0  0  0  0  0  0  0  0  0  0
    5.7717   45.4198   56.2727 H   0  0  0  0  0  0  0  0  0  0  0  0
    5.0972   44.7014   54.7708 H   0  0  0  0  0  0  0  0  0  0  0  0
    5.6789   46.4009   54.7708 H   0  0  0  0  0  0  0  0  0  0  0  0
    3.6138   44.6590   53.5381 H   0  0  0  0  0  0  0  0  0  0  0  0
    3.0340   41.4870   52.9290 H   0  0  0  0  0  0  0  0  0  0  0  0
    4.2781   44.4142   52.6213 H   0  0  0  0  0  0  0  0  0  0  0  0
    8.1250   44.7780   52.7690 H   0  0  0  0  0  0  0  0  0  0  0  0
    8.1040   48.7265   53.3502 H   0  0  0  0  0  0  0  0  0  0  0  0
    9.0743   48.6807   51.8392 H   0  0  0  0  0  0  0  0  0  0  0  0
    7.3829   48.0758   51.8392 H   0  0  0  0  0  0  0  0  0  0  0  0
    8.5216   46.7182   54.9508 H   0  0  0  0  0  0  0  0  0  0  0  0
   10.0575   45.9679   54.3988 H   0  0  0  0  0  0  0  0  0  0  0  0
    9.8804   47.7554   54.3988 H   0  0  0  0  0  0  0  0  0  0  0  0
   10.8442   46.0434   52.4679 H   0  0  0  0  0  0  0  0  0  0  0  0
    9.6622   45.5022   51.2283 H   0  0  0  0  0  0  0  0  0  0  0  0
   10.2499   47.1996   51.2283 H   0  0  0  0  0  0  0  0  0  0  0  0
    7.2931   43.8415   49.5741 H   0  0  0  0  0  0  0  0  0  0  0  0
    6.2509   41.6694   48.9423 H   0  0  0  0  0  0  0  0  0  0  0  0
    2.7087   39.5758   48.8971 H   0  0  0  0  0  0  0  0  0  0  0  0
    3.3023   41.1449   48.2550 H   0  0  0  0  0  0  0  0  0  0  0  0
    4.3810   39.7086   48.2550 H   0  0  0  0  0  0  0  0  0  0  0  0
   -0.5624   43.6813   54.0858 H   0  0  0  0  0  0  0  0  0  0  0  0
  1  2  1  0
  2  3  1  0
  3  4  2  0
  4  5  1  0
  5  6  1  0
  6  7  1  0
  5  8  2  0
  8  9  1  0
  9 10  1  0
 10 11  2  0
 10 12  2  0
 10 13  1  0
 13 14  1  0
 14 15  2  0
 15 16  1  0
 16 17  1  0
 17 18  2  0
 17 19  2  0
 17 20  1  0
 20 21  1  0
 21 22  1  0
 21 23  1  0
 21 24  1  0
 16 25  2  0
 25 26  1  0
 26 27  2  0
 27 28  1  0
 28 29  1  0
  9 30  2  0
 30  3  1  0
 27 14  1  0
  1 31  1  0
  1 32  1  0
  1 33  1  0
  4 34  1  0
  7 35  1  0
  7 36  1  0
  7 37  1  0
  8 38  1  0
 13 39  1  0
 15 40  1  0
 20 41  1  0
 22 42  1  0
 22 43  1  0
 22 44  1  0
 23 45  1  0
 23 46  1  0
 23 47  1  0
 24 48  1  0
 24 49  1  0
 24 50  1  0
 25 51  1  0
 26 52  1  0
 29 53  1  0
 29 54  1  0
 29 55  1  0
 30 56  1  0
M  END
>  <meeko>  (3) 
{"is_sidechain": [false], "free_energy": -8.321, "intermolecular_energy": -12.746, "internal_energy": -0.334}

$$$$
ligand_63_conformer_3_docked
     RDKit          3D

 56 57  0  0  0  0  0  0  0  0999 V2000
    9.8070   47.3000   53.4080 C   0  0  0  0  0  0  0  0  0  0  0  0
    8.5940   47.8420   52.8920 O   0  0  0  0  0  0  0  0  0  0  0  0
    7.5480   47.0760   52.3530 C   0  0  0  0  0  0  0  0  0  0  0  0
    7.8600   46.1180   51.3820 C   0  0  0  0  0  0  0  0  0  0  0  0
    6.8510   45.3110   50.8200 C   0  0  0  0  0  0  0  0  0  0  0  0
    7.1240   44.3290   49.8580 O   0  0  0  0  0  0  0  0  0  0  0  0
    8.3920   44.1390   49.2380 C   0  0  0  0  0  0  0  0  0  0  0  0
    5.5240   45.4890   51.2290 C   0  0  0  0  0  0  0  0  0  0  0  0
    5.1990   46.4590   52.1840 C   0  0  0  0  0  0  0  0  0  0  0  0
    3.5330   46.6660   52.7170 S   0  0  0  0  0  0  0  0  0  0  0  0
    3.4320   46.2780   54.1650 O   0  0  0  0  0  0  0  0  0  0  0  0
    3.1030   48.1000   52.5770 O   0  0  0  0  0  0  0  0  0  0  0  0
    2.5040   45.6420   51.7740 N   0  0  0  0  0  0  0  0  0  0  0  0
    1.6250   44.7170   52.4230 C   0  0  0  0  0  0  0  0  0  0  0  0
    0.3240   45.1230   52.7470 C   0  0  0  0  0  0  0  0  0  0  0  0
   -0.5430   44.2520   53.4180 C   0  0  0  0  0  0  0  0  0  0  0  0
   -2.1540   44.7790   53.8950 S   0  0  0  0  0  0  0  0  0  0  0  0
   -2.8980   45.3340   52.7120 O   0  0  0  0  0  0  0  0  0  0  0  0
   -2.9040   43.5720   54.3840 O   0  0  0  0  0  0  0  0  0  0  0  0
   -2.1120   45.9630   55.1830 N   0  0  0  0  0  0  0  0  0  0  0  0
   -1.4870   45.5580   56.4680 C   0  0  0  0  0  0  0  0  0  0  0  0
    0.0530   45.6640   56.4240 C   0  0  0  0  0  0  0  0  0  0  0  0
   -1.9960   46.5420   57.5430 C   0  0  0  0  0  0  0  0  0  0  0  0
   -1.9050   44.1310   56.8910 C   0  0  0  0  0  0  0  0  0  0  0  0
   -0.1180   42.9570   53.7320 C   0  0  0  0  0  0  0  0  0  0  0  0
    1.1750   42.5420   53.4070 C   0  0  0  0  0  0  0  0  0  0  0  0
    2.0610   43.4190   52.7510 C   0  0  0  0  0  0  0  0  0  0  0  0
    3.3640   43.0320   52.4000 O   0  0  0  0  0  0  0  0  0  0  0  0
    3.6820   42.1570   51.3220 C   0  0  0  0  0  0  0  0  0  0  0  0
    6.2110   47.2400   52.7550 C   0  0  0  0  0  0  0  0  0  0  0  0
    9.7763   47.3137   54.5075 H   0  0  0  0  0  0  0  0  0  0  0  0
    9.9241   46.2640   53.0574 H   0  0  0  0  0  0  0  0  0  0  0  0
   10.6569   47.9040   53.0574 H   0  0  0  0  0  0  0  0  0  0  0  0
    8.9027   45.9938   51.0544 H   0  0  0  0  0  0  0  0  0  0  0  0
    9.1649   44.0232   50.0120 H   0  0  0  0  0  0  0  0  0  0  0  0
    8.3621   43.2353   48.6115 H   0  0  0  0  0  0  0  0  0  0  0  0
    8.6283   45.0118   48.6115 H   0  0  0  0  0  0  0  0  0  0  0  0
    4.7307   44.8616   50.7964 H   0  0  0  0  0  0  0  0  0  0  0  0
    2.2480   45.9810   50.8180 H   0  0  0  0  0  0  0  0  0  0  0  0
   -0.0184   46.1317   52.4727 H   0  0  0  0  0  0  0  0  0  0  0  0
   -3.0950   46.2790   55.3520 H   0  0  0  0  0  0  0  0  0  0  0  0
    0.4481   45.6912   57.4502 H   0  0  0  0  0  0  0  0  0  0  0  0
    0.4656   44.7921   55.8952 H   0  0  0  0  0  0  0  0  0  0  0  0
    0.3422   46.5842   55.8952 H   0  0  0  0  0  0  0  0  0  0  0  0
   -1.7851   46.1342   58.5426 H   0  0  0  0  0  0  0  0  0  0  0  0
   -1.4851   47.5091   57.4262 H   0  0  0  0  0  0  0  0  0  0  0  0
   -3.0805   46.6838   57.4262 H   0  0  0  0  0  0  0  0  0  0  0  0
   -1.9244   44.0649   57.9888 H   0  0  0  0  0  0  0  0  0  0  0  0
   -2.9060   43.9089   56.4926 H   0  0  0  0  0  0  0  0  0  0  0  0
   -1.1821   43.4039   56.4926 H   0  0  0  0  0  0  0  0  0  0  0  0
   -0.8053   42.2625   54.2372 H   0  0  0  0  0  0  0  0  0  0  0  0
    1.5037   41.5244   53.6647 H   0  0  0  0  0  0  0  0  0  0  0  0
    4.0320   41.1941   51.7224 H   0  0  0  0  0  0  0  0  0  0  0  0
    2.7857   41.9938   50.7056 H   0  0  0  0  0  0  0  0  0  0  0  0
    4.4739   42.6074   50.7056 H   0  0  0  0  0  0  0  0  0  0  0  0
    5.9584   47.9863   53.5226 H   0  0  0  0  0  0  0  0  0  0  0  0
  1  2  1  0
  2  3  1  0
  3  4  2  0
  4  5  1  0
  5  6  1  0
  6  7  1  0
  5  8  2  0
  8  9  1  0
  9 10  1  0
 10 11  2  0
 10 12  2  0
 10 13  1  0
 13 14  1  0
 14 15  2  0
 15 16  1  0
 16 17  1  0
 17 18  2  0
 17 19  2  0
 17 20  1  0
 20 21  1  0
 21 22  1  0
 21 23  1  0
 21 24  1  0
 16 25  2  0
 25 26  1  0
 26 27  2  0
 27 28  1  0
 28 29  1  0
  9 30  2  0
 30  3  1  0
 27 14  1  0
  1 31  1  0
  1 32  1  0
  1 33  1  0
  4 34  1  0
  7 35  1  0
  7 36  1  0
  7 37  1  0
  8 38  1  0
 13 39  1  0
 15 40  1  0
 20 41  1  0
 22 42  1  0
 22 43  1  0
 22 44  1  0
 23 45  1  0
 23 46  1  0
 23 47  1  0
 24 48  1  0
 24 49  1  0
 24 50  1  0
 25 51  1  0
 26 52  1  0
 29 53  1  0
 29 54  1  0
 29 55  1  0
 30 56  1  0
M  END
>  <meeko>  (4) 
{"is_sidechain": [false], "free_energy": -8.09, "intermolecular_energy": -12.048, "internal_energy": -0.68}

$$$$
ligand_63_conformer_3_docked
     RDKit          3D

 56 57  0  0  0  0  0  0  0  0999 V2000
    8.4520   44.0180   49.3300 C   0  0  0  0  0  0  0  0  0  0  0  0
    7.1210   44.3530   49.7110 O   0  0  0  0  0  0  0  0  0  0  0  0
    6.7910   45.2890   50.7040 C   0  0  0  0  0  0  0  0  0  0  0  0
    7.8150   46.0850   51.2310 C   0  0  0  0  0  0  0  0  0  0  0  0
    7.5370   47.0500   52.2180 C   0  0  0  0  0  0  0  0  0  0  0  0
    8.5300   47.8790   52.7590 O   0  0  0  0  0  0  0  0  0  0  0  0
    9.3960   47.5070   53.8270 C   0  0  0  0  0  0  0  0  0  0  0  0
    6.2250   47.1950   52.6850 C   0  0  0  0  0  0  0  0  0  0  0  0
    5.1980   46.3890   52.1810 C   0  0  0  0  0  0  0  0  0  0  0  0
    3.5430   46.5890   52.7500 S   0  0  0  0  0  0  0  0  0  0  0  0
    3.4710   46.1800   54.1940 O   0  0  0  0  0  0  0  0  0  0  0  0
    3.1110   48.0240   52.6380 O   0  0  0  0  0  0  0  0  0  0  0  0
    2.4950   45.5780   51.8120 N   0  0  0  0  0  0  0  0  0  0  0  0
    1.6130   44.6590   52.4660 C   0  0  0  0  0  0  0  0  0  0  0  0
    0.3130   45.0710   52.7850 C   0  0  0  0  0  0  0  0  0  0  0  0
   -0.5580   44.2080   53.4610 C   0  0  0  0  0  0  0  0  0  0  0  0
   -2.1670   44.7430   53.9330 S   0  0  0  0  0  0  0  0  0  0  0  0
   -2.9050   45.3020   52.7470 O   0  0  0  0  0  0  0  0  0  0  0  0
   -2.9260   43.5390   54.4170 O   0  0  0  0  0  0  0  0  0  0  0  0
   -2.1250   45.9250   55.2220 N   0  0  0  0  0  0  0  0  0  0  0  0
   -1.4890   45.5230   56.5030 C   0  0  0  0  0  0  0  0  0  0  0  0
    0.0520   45.5920   56.4350 C   0  0  0  0  0  0  0  0  0  0  0  0
   -1.9600   46.5310   57.5720 C   0  0  0  0  0  0  0  0  0  0  0  0
   -1.9340   44.1110   56.9500 C   0  0  0  0  0  0  0  0  0  0  0  0
   -0.1370   42.9140   53.7850 C   0  0  0  0  0  0  0  0  0  0  0  0
    1.1550   42.4920   53.4640 C   0  0  0  0  0  0  0  0  0  0  0  0
    2.0450   43.3620   52.8030 C   0  0  0  0  0  0  0  0  0  0  0  0
    3.3470   42.9690   52.4560 O   0  0  0  0  0  0  0  0  0  0  0  0
    3.6760   42.1960   51.3060 C   0  0  0  0  0  0  0  0  0  0  0  0
    5.4780   45.4490   51.1820 C   0  0  0  0  0  0  0  0  0  0  0  0
    9.0636   43.8641   50.2312 H   0  0  0  0  0  0  0  0  0  0  0  0
    8.4409   43.0946   48.7323 H   0  0  0  0  0  0  0  0  0  0  0  0
    8.8793   44.8366   48.7323 H   0  0  0  0  0  0  0  0  0  0  0  0
    8.8462   45.9554   50.8707 H   0  0  0  0  0  0  0  0  0  0  0  0
    8.9045   47.7181   54.7881 H   0  0  0  0  0  0  0  0  0  0  0  0
    9.6217   46.4326   53.7588 H   0  0  0  0  0  0  0  0  0  0  0  0
   10.3306   48.0830   53.7588 H   0  0  0  0  0  0  0  0  0  0  0  0
    5.9997   47.9484   53.4542 H   0  0  0  0  0  0  0  0  0  0  0  0
    2.2350   45.9230   50.8600 H   0  0  0  0  0  0  0  0  0  0  0  0
   -0.0258   46.0787   52.5027 H   0  0  0  0  0  0  0  0  0  0  0  0
   -3.1080   46.2370   55.3970 H   0  0  0  0  0  0  0  0  0  0  0  0
    0.4636   45.6104   57.4549 H   0  0  0  0  0  0  0  0  0  0  0  0
    0.4353   44.7101   55.9008 H   0  0  0  0  0  0  0  0  0  0  0  0
    0.3550   46.5046   55.9008 H   0  0  0  0  0  0  0  0  0  0  0  0
   -1.7678   46.1196   58.5739 H   0  0  0  0  0  0  0  0  0  0  0  0
   -1.4103   47.4762   57.4521 H   0  0  0  0  0  0  0  0  0  0  0  0
   -3.0377   46.7158   57.4521 H   0  0  0  0  0  0  0  0  0  0  0  0
   -1.9494   44.0621   58.0488 H   0  0  0  0  0  0  0  0  0  0  0  0
   -2.9412   43.9032   56.5596 H   0  0  0  0  0  0  0  0  0  0  0  0
   -1.2280   43.3633   56.5596 H   0  0  0  0  0  0  0  0  0  0  0  0
   -0.8268   42.2255   54.2950 H   0  0  0  0  0  0  0  0  0  0  0  0
    1.4797   41.4749   53.7286 H   0  0  0  0  0  0  0  0  0  0  0  0
    4.0887   41.2264   51.6217 H   0  0  0  0  0  0  0  0  0  0  0  0
    2.7703   42.0305   50.7040 H   0  0  0  0  0  0  0  0  0  0  0  0
    4.4231   42.7340   50.7040 H   0  0  0  0  0  0  0  0  0  0  0  0
    4.6665   44.8321   50.7686 H   0  0  0  0  0  0  0  0  0  0  0  0
  1  2  1  0
  2  3  1  0
  3  4  2  0
  4  5  1  0
  5  6  1  0
  6  7  1  0
  5  8  2  0
  8  9  1  0
  9 10  1  0
 10 11  2  0
 10 12  2  0
 10 13  1  0
 13 14  1  0
 14 15  2  0
 15 16  1  0
 16 17  1  0
 17 18  2  0
 17 19  2  0
 17 20  1  0
 20 21  1  0
 21 22  1  0
 21 23  1  0
 21 24  1  0
 16 25  2  0
 25 26  1  0
 26 27  2  0
 27 28  1  0
 28 29  1  0
  9 30  2  0
 30  3  1  0
 27 14  1  0
  1 31  1  0
  1 32  1  0
  1 33  1  0
  4 34  1  0
  7 35  1  0
  7 36  1  0
  7 37  1  0
  8 38  1  0
 13 39  1  0
 15 40  1  0
 20 41  1  0
 22 42  1  0
 22 43  1  0
 22 44  1  0
 23 45  1  0
 23 46  1  0
 23 47  1  0
 24 48  1  0
 24 49  1  0
 24 50  1  0
 25 51  1  0
 26 52  1  0
 29 53  1  0
 29 54  1  0
 29 55  1  0
 30 56  1  0
M  END
>  <meeko>  (5) 
{"is_sidechain": [false], "free_energy": -8.072, "intermolecular_energy": -12.028, "internal_energy": -0.672}

$$$$
