MODEL 1
REMARK VINA RESULT:    -8.606      0.000      0.000
REMARK INTER + INTRA:         -13.203
REMARK INTER:                 -12.127
REMARK INTRA:                  -1.075
REMARK UNBOUND:                -1.075
REMARK SMILES CN(C)CCc1ccc(CNC(=O)Cc2ccc3sccc3c2)cc1
REMARK SMILES IDX 6 1 7 2 8 3 9 4 24 5 25 6 5 7 4 8 2 9 1 10 3 11 10 12 11 13
REMARK SMILES IDX 12 14 13 15 14 17 15 18 16 19 23 20 17 21 22 22 18 23 21 24
REMARK SMILES IDX 19 25 20 26
REMARK H PARENT 11 16
ROOT
ATOM      1  C   UNL     1       8.883  46.521  51.880  1.00  0.00    -0.047 A 
ATOM      2  C   UNL     1       7.557  46.339  51.460  1.00  0.00     0.004 A 
ATOM      3  C   UNL     1       7.247  45.377  50.493  1.00  0.00     0.006 A 
ATOM      4  C   UNL     1       8.260  44.580  49.938  1.00  0.00    -0.029 A 
ATOM      5  C   UNL     1       9.586  44.757  50.364  1.00  0.00     0.006 A 
ATOM      6  C   UNL     1       9.895  45.716  51.334  1.00  0.00     0.004 A 
ENDROOT
BRANCH   1   7
ATOM      7  C   UNL     1       9.205  47.524  52.956  1.00  0.00     0.051 C 
BRANCH   7   8
ATOM      8  C   UNL     1      10.205  46.938  53.961  1.00  0.00     0.088 C 
BRANCH   8   9
ATOM      9  N   UNL     1       9.870  47.373  55.335  1.00  0.00    -0.309 NA
ATOM     10  C   UNL     1      11.093  47.516  56.142  1.00  0.00     0.104 C 
ATOM     11  C   UNL     1       9.139  48.651  55.322  1.00  0.00     0.104 C 
ENDBRANCH   8   9
ENDBRANCH   7   8
ENDBRANCH   1   7
BRANCH   4  12
ATOM     12  C   UNL     1       7.930  43.532  48.908  1.00  0.00     0.151 C 
BRANCH  12  13
ATOM     13  N   UNL     1       6.560  43.054  49.078  1.00  0.00    -0.352 N 
ATOM     14  C   UNL     1       6.247  41.814  49.727  1.00  0.00     0.224 C 
ATOM     15  O   UNL     1       7.169  41.066  50.146  1.00  0.00    -0.275 OA
ATOM     16  H   UNL     1       5.779  43.653  48.723  1.00  0.00     0.163 HD
BRANCH  14  17
ATOM     17  C   UNL     1       4.820  41.418  49.950  1.00  0.00     0.135 C 
BRANCH  17  18
ATOM     18  C   UNL     1       4.169  42.371  50.914  1.00  0.00    -0.038 A 
ATOM     19  C   UNL     1       2.759  42.477  50.967  1.00  0.00     0.006 A 
ATOM     20  C   UNL     1       4.963  43.121  51.810  1.00  0.00     0.013 A 
ATOM     21  C   UNL     1       2.141  43.337  51.889  1.00  0.00     0.020 A 
ATOM     22  C   UNL     1       4.334  43.970  52.724  1.00  0.00    -0.007 A 
ATOM     23  C   UNL     1       2.952  44.069  52.751  1.00  0.00     0.034 A 
ATOM     24  C   UNL     1       4.969  44.777  53.675  1.00  0.00     0.020 A 
ATOM     25  S   UNL     1       2.492  45.153  53.947  1.00  0.00    -0.144 S 
ATOM     26  C   UNL     1       4.069  45.510  54.446  1.00  0.00     0.066 A 
ENDBRANCH  17  18
ENDBRANCH  14  17
ENDBRANCH  12  13
ENDBRANCH   4  12
TORSDOF 7
ENDMDL
MODEL 2
REMARK VINA RESULT:    -8.095      3.091      7.304
REMARK INTER + INTRA:         -12.483
REMARK INTER:                 -11.392
REMARK INTRA:                  -1.092
REMARK UNBOUND:                -1.075
REMARK SMILES CN(C)CCc1ccc(CNC(=O)Cc2ccc3sccc3c2)cc1
REMARK SMILES IDX 6 1 7 2 8 3 9 4 24 5 25 6 5 7 4 8 2 9 1 10 3 11 10 12 11 13
REMARK SMILES IDX 12 14 13 15 14 17 15 18 16 19 23 20 17 21 22 22 18 23 21 24
REMARK SMILES IDX 19 25 20 26
REMARK H PARENT 11 16
ROOT
ATOM      1  C   UNL     1       1.600  45.023  54.174  1.00  0.00    -0.047 A 
ATOM      2  C   UNL     1       1.826  45.828  53.047  1.00  0.00     0.004 A 
ATOM      3  C   UNL     1       2.930  46.686  53.000  1.00  0.00     0.006 A 
ATOM      4  C   UNL     1       3.826  46.744  54.078  1.00  0.00    -0.029 A 
ATOM      5  C   UNL     1       3.605  45.934  55.203  1.00  0.00     0.006 A 
ATOM      6  C   UNL     1       2.502  45.073  55.248  1.00  0.00     0.004 A 
ENDROOT
BRANCH   1   7
ATOM      7  C   UNL     1       0.438  44.066  54.200  1.00  0.00     0.051 C 
BRANCH   7   8
ATOM      8  C   UNL     1       0.799  42.755  53.490  1.00  0.00     0.088 C 
BRANCH   8   9
ATOM      9  N   UNL     1      -0.021  42.586  52.271  1.00  0.00    -0.309 NA
ATOM     10  C   UNL     1      -1.272  43.354  52.383  1.00  0.00     0.104 C 
ATOM     11  C   UNL     1       0.716  43.023  51.072  1.00  0.00     0.104 C 
ENDBRANCH   8   9
ENDBRANCH   7   8
ENDBRANCH   1   7
BRANCH   4  12
ATOM     12  C   UNL     1       5.025  47.654  54.026  1.00  0.00     0.151 C 
BRANCH  12  13
ATOM     13  N   UNL     1       5.757  47.474  52.775  1.00  0.00    -0.352 N 
ATOM     14  C   UNL     1       7.040  46.837  52.713  1.00  0.00     0.224 C 
ATOM     15  O   UNL     1       7.603  46.439  53.766  1.00  0.00    -0.275 OA
ATOM     16  H   UNL     1       5.314  47.812  51.889  1.00  0.00     0.163 HD
BRANCH  14  17
ATOM     17  C   UNL     1       7.703  46.601  51.390  1.00  0.00     0.135 C 
BRANCH  17  18
ATOM     18  C   UNL     1       7.211  45.312  50.793  1.00  0.00    -0.038 A 
ATOM     19  C   UNL     1       7.961  44.663  49.784  1.00  0.00     0.006 A 
ATOM     20  C   UNL     1       6.026  44.717  51.279  1.00  0.00     0.013 A 
ATOM     21  C   UNL     1       7.528  43.441  49.247  1.00  0.00     0.020 A 
ATOM     22  C   UNL     1       5.609  43.498  50.736  1.00  0.00    -0.007 A 
ATOM     23  C   UNL     1       6.352  42.886  49.740  1.00  0.00     0.034 A 
ATOM     24  C   UNL     1       4.465  42.779  51.103  1.00  0.00     0.020 A 
ATOM     25  S   UNL     1       5.611  41.446  49.295  1.00  0.00    -0.144 S 
ATOM     26  C   UNL     1       4.322  41.594  50.382  1.00  0.00     0.066 A 
ENDBRANCH  17  18
ENDBRANCH  14  17
ENDBRANCH  12  13
ENDBRANCH   4  12
TORSDOF 7
ENDMDL
MODEL 3
REMARK VINA RESULT:    -7.790      2.854      4.875
REMARK INTER + INTRA:         -12.053
REMARK INTER:                 -10.874
REMARK INTRA:                  -1.179
REMARK UNBOUND:                -1.075
REMARK SMILES CN(C)CCc1ccc(CNC(=O)Cc2ccc3sccc3c2)cc1
REMARK SMILES IDX 6 1 7 2 8 3 9 4 24 5 25 6 5 7 4 8 2 9 1 10 3 11 10 12 11 13
REMARK SMILES IDX 12 14 13 15 14 17 15 18 16 19 23 20 17 21 22 22 18 23 21 24
REMARK SMILES IDX 19 25 20 26
REMARK H PARENT 11 16
ROOT
ATOM      1  C   UNL     1       6.643  46.804  54.581  1.00  0.00    -0.047 A 
ATOM      2  C   UNL     1       6.474  45.461  54.951  1.00  0.00     0.004 A 
ATOM      3  C   UNL     1       5.192  44.934  55.137  1.00  0.00     0.006 A 
ATOM      4  C   UNL     1       4.061  45.742  54.947  1.00  0.00    -0.029 A 
ATOM      5  C   UNL     1       4.228  47.084  54.569  1.00  0.00     0.006 A 
ATOM      6  C   UNL     1       5.511  47.610  54.380  1.00  0.00     0.004 A 
ENDROOT
BRANCH   1   7
ATOM      7  C   UNL     1       8.022  47.355  54.336  1.00  0.00     0.051 C 
BRANCH   7   8
ATOM      8  C   UNL     1       8.870  46.357  53.536  1.00  0.00     0.088 C 
BRANCH   8   9
ATOM      9  N   UNL     1       9.514  47.031  52.388  1.00  0.00    -0.309 NA
ATOM     10  C   UNL     1      10.308  46.069  51.606  1.00  0.00     0.104 C 
ATOM     11  C   UNL     1       8.511  47.664  51.514  1.00  0.00     0.104 C 
ENDBRANCH   8   9
ENDBRANCH   7   8
ENDBRANCH   1   7
BRANCH   4  12
ATOM     12  C   UNL     1       2.677  45.176  55.130  1.00  0.00     0.151 C 
BRANCH  12  13
ATOM     13  N   UNL     1       2.440  44.080  54.193  1.00  0.00    -0.352 N 
ATOM     14  C   UNL     1       1.841  44.279  52.905  1.00  0.00     0.224 C 
ATOM     15  O   UNL     1       1.460  45.426  52.551  1.00  0.00    -0.275 OA
ATOM     16  H   UNL     1       2.735  43.116  54.472  1.00  0.00     0.163 HD
BRANCH  14  17
ATOM     17  C   UNL     1       1.704  43.132  51.951  1.00  0.00     0.135 C 
BRANCH  17  18
ATOM     18  C   UNL     1       3.033  42.830  51.316  1.00  0.00    -0.038 A 
ATOM     19  C   UNL     1       3.278  41.559  50.746  1.00  0.00     0.006 A 
ATOM     20  C   UNL     1       4.022  43.836  51.238  1.00  0.00     0.013 A 
ATOM     21  C   UNL     1       4.502  41.280  50.120  1.00  0.00     0.020 A 
ATOM     22  C   UNL     1       5.236  43.545  50.609  1.00  0.00    -0.007 A 
ATOM     23  C   UNL     1       5.459  42.289  50.068  1.00  0.00     0.034 A 
ATOM     24  C   UNL     1       6.314  44.423  50.447  1.00  0.00     0.020 A 
ATOM     25  S   UNL     1       6.990  42.241  49.381  1.00  0.00    -0.144 S 
ATOM     26  C   UNL     1       7.385  43.839  49.772  1.00  0.00     0.066 A 
ENDBRANCH  17  18
ENDBRANCH  14  17
ENDBRANCH  12  13
ENDBRANCH   4  12
TORSDOF 7
ENDMDL
MODEL 4
REMARK VINA RESULT:    -7.783      2.840      6.632
REMARK INTER + INTRA:         -12.043
REMARK INTER:                 -11.055
REMARK INTRA:                  -0.989
REMARK UNBOUND:                -1.075
REMARK SMILES CN(C)CCc1ccc(CNC(=O)Cc2ccc3sccc3c2)cc1
REMARK SMILES IDX 6 1 7 2 8 3 9 4 24 5 25 6 5 7 4 8 2 9 1 10 3 11 10 12 11 13
REMARK SMILES IDX 12 14 13 15 14 17 15 18 16 19 23 20 17 21 22 22 18 23 21 24
REMARK SMILES IDX 19 25 20 26
REMARK H PARENT 11 16
ROOT
ATOM      1  C   UNL     1       3.386  45.700  55.127  1.00  0.00    -0.047 A 
ATOM      2  C   UNL     1       4.425  44.834  55.500  1.00  0.00     0.004 A 
ATOM      3  C   UNL     1       5.759  45.204  55.307  1.00  0.00     0.006 A 
ATOM      4  C   UNL     1       6.073  46.451  54.744  1.00  0.00    -0.029 A 
ATOM      5  C   UNL     1       5.034  47.322  54.378  1.00  0.00     0.006 A 
ATOM      6  C   UNL     1       3.699  46.952  54.574  1.00  0.00     0.004 A 
ENDROOT
BRANCH   1   7
ATOM      7  C   UNL     1       1.952  45.317  55.380  1.00  0.00     0.051 C 
BRANCH   7   8
ATOM      8  C   UNL     1       1.149  45.326  54.073  1.00  0.00     0.088 C 
BRANCH   8   9
ATOM      9  N   UNL     1       1.711  44.347  53.117  1.00  0.00    -0.309 NA
ATOM     10  C   UNL     1       1.222  42.992  53.421  1.00  0.00     0.104 C 
ATOM     11  C   UNL     1       1.355  44.697  51.731  1.00  0.00     0.104 C 
ENDBRANCH   8   9
ENDBRANCH   7   8
ENDBRANCH   1   7
BRANCH   4  12
ATOM     12  C   UNL     1       7.508  46.862  54.549  1.00  0.00     0.151 C 
BRANCH  12  13
ATOM     13  N   UNL     1       8.017  46.370  53.271  1.00  0.00    -0.352 N 
ATOM     14  C   UNL     1       8.068  47.185  52.092  1.00  0.00     0.224 C 
ATOM     15  O   UNL     1       7.629  48.365  52.115  1.00  0.00    -0.275 OA
ATOM     16  H   UNL     1       8.373  45.387  53.225  1.00  0.00     0.163 HD
BRANCH  14  17
ATOM     17  C   UNL     1       8.682  46.654  50.833  1.00  0.00     0.135 C 
BRANCH  17  18
ATOM     18  C   UNL     1       7.966  45.405  50.400  1.00  0.00    -0.038 A 
ATOM     19  C   UNL     1       8.576  44.516  49.484  1.00  0.00     0.006 A 
ATOM     20  C   UNL     1       6.705  45.088  50.952  1.00  0.00     0.013 A 
ATOM     21  C   UNL     1       7.930  43.329  49.102  1.00  0.00     0.020 A 
ATOM     22  C   UNL     1       6.075  43.901  50.565  1.00  0.00    -0.007 A 
ATOM     23  C   UNL     1       6.685  43.051  49.656  1.00  0.00     0.034 A 
ATOM     24  C   UNL     1       4.833  43.441  51.014  1.00  0.00     0.020 A 
ATOM     25  S   UNL     1       5.700  41.717  49.392  1.00  0.00    -0.144 S 
ATOM     26  C   UNL     1       4.475  42.219  50.446  1.00  0.00     0.066 A 
ENDBRANCH  17  18
ENDBRANCH  14  17
ENDBRANCH  12  13
ENDBRANCH   4  12
TORSDOF 7
ENDMDL
MODEL 5
REMARK VINA RESULT:    -7.657      4.565      7.578
REMARK INTER + INTRA:         -11.866
REMARK INTER:                 -10.871
REMARK INTRA:                  -0.995
REMARK UNBOUND:                -1.075
REMARK SMILES CN(C)CCc1ccc(CNC(=O)Cc2ccc3sccc3c2)cc1
REMARK SMILES IDX 6 1 7 2 8 3 9 4 24 5 25 6 5 7 4 8 2 9 1 10 3 11 10 12 11 13
REMARK SMILES IDX 12 14 13 15 14 17 15 18 16 19 23 20 17 21 22 22 18 23 21 24
REMARK SMILES IDX 19 25 20 26
REMARK H PARENT 11 16
ROOT
ATOM      1  C   UNL     1       0.340  45.421  56.371  1.00  0.00    -0.047 A 
ATOM      2  C   UNL     1      -0.876  44.867  55.941  1.00  0.00     0.004 A 
ATOM      3  C   UNL     1      -0.908  43.994  54.849  1.00  0.00     0.006 A 
ATOM      4  C   UNL     1       0.276  43.658  54.176  1.00  0.00    -0.029 A 
ATOM      5  C   UNL     1       1.494  44.206  54.609  1.00  0.00     0.006 A 
ATOM      6  C   UNL     1       1.527  45.077  55.705  1.00  0.00     0.004 A 
ENDROOT
BRANCH   1   7
ATOM      7  C   UNL     1       0.378  46.322  57.576  1.00  0.00     0.051 C 
BRANCH   7   8
ATOM      8  C   UNL     1      -0.914  47.143  57.680  1.00  0.00     0.088 C 
BRANCH   8   9
ATOM      9  N   UNL     1      -1.096  47.646  59.059  1.00  0.00    -0.309 NA
ATOM     10  C   UNL     1       0.210  47.897  59.691  1.00  0.00     0.104 C 
ATOM     11  C   UNL     1      -1.893  48.885  59.070  1.00  0.00     0.104 C 
ENDBRANCH   8   9
ENDBRANCH   7   8
ENDBRANCH   1   7
BRANCH   4  12
ATOM     12  C   UNL     1       0.249  42.707  53.009  1.00  0.00     0.151 C 
BRANCH  12  13
ATOM     13  N   UNL     1       1.602  42.282  52.657  1.00  0.00    -0.352 N 
ATOM     14  C   UNL     1       2.321  42.833  51.545  1.00  0.00     0.224 C 
ATOM     15  O   UNL     1       1.780  43.691  50.800  1.00  0.00    -0.275 OA
ATOM     16  H   UNL     1       2.065  41.558  53.254  1.00  0.00     0.163 HD
BRANCH  14  17
ATOM     17  C   UNL     1       3.739  42.423  51.285  1.00  0.00     0.135 C 
BRANCH  17  18
ATOM     18  C   UNL     1       4.671  43.546  51.645  1.00  0.00    -0.038 A 
ATOM     19  C   UNL     1       5.437  44.184  50.641  1.00  0.00     0.006 A 
ATOM     20  C   UNL     1       4.742  44.005  52.979  1.00  0.00     0.013 A 
ATOM     21  C   UNL     1       6.283  45.258  50.961  1.00  0.00     0.020 A 
ATOM     22  C   UNL     1       5.586  45.077  53.283  1.00  0.00    -0.007 A 
ATOM     23  C   UNL     1       6.337  45.679  52.286  1.00  0.00     0.034 A 
ATOM     24  C   UNL     1       5.771  45.651  54.546  1.00  0.00     0.020 A 
ATOM     25  S   UNL     1       7.242  46.930  52.947  1.00  0.00    -0.144 S 
ATOM     26  C   UNL     1       6.677  46.710  54.527  1.00  0.00     0.066 A 
ENDBRANCH  17  18
ENDBRANCH  14  17
ENDBRANCH  12  13
ENDBRANCH   4  12
TORSDOF 7
ENDMDL
