MODEL 1
REMARK VINA RESULT:    -8.819      0.000      0.000
REMARK INTER + INTRA:         -10.813
REMARK INTER:                 -11.396
REMARK INTRA:                   0.584
REMARK UNBOUND:                 0.584
REMARK SMILES Cc1cc(NC(=O)NC2CCN([C@H](C)c3ccccc3)CC2)nn1-c1ccc(F)cc1F
REMARK SMILES IDX 5 1 6 2 7 3 8 4 4 7 2 8 3 9 24 10 23 11 1 12 25 13 26 14
REMARK SMILES IDX 31 15 27 16 30 17 28 18 32 19 29 20 9 21 10 22 22 23 11 24
REMARK SMILES IDX 21 25 12 26 13 27 14 28 15 29 16 30 20 31 17 32 19 33 18 34
REMARK H PARENT 5 5 8 6
ROOT
ATOM      1  N   UNL     1       1.202  44.809  55.505  1.00  0.00    -0.291 N 
ATOM      2  C   UNL     1       2.403  45.322  54.908  1.00  0.00     0.320 C 
ATOM      3  O   UNL     1       2.434  45.598  53.676  1.00  0.00    -0.248 OA
ATOM      4  N   UNL     1       3.576  45.503  55.713  1.00  0.00    -0.335 N 
ATOM      5  H   UNL     1       1.234  44.511  56.508  1.00  0.00     0.173 HD
ATOM      6  H   UNL     1       3.538  45.190  56.708  1.00  0.00     0.165 HD
ENDROOT
BRANCH   1   7
ATOM      7  C   UNL     1      -0.039  44.666  54.802  1.00  0.00     0.156 A 
ATOM      8  C   UNL     1      -2.136  44.335  54.334  1.00  0.00     0.043 A 
ATOM      9  C   UNL     1      -1.262  44.429  55.399  1.00  0.00     0.072 A 
ATOM     10  N   UNL     1      -1.447  44.527  53.184  1.00  0.00    -0.233 N 
ATOM     11  N   UNL     1      -0.167  44.714  53.460  1.00  0.00    -0.150 NA
ATOM     12  C   UNL     1      -3.583  43.956  54.429  1.00  0.00     0.067 C 
BRANCH  10  13
ATOM     13  C   UNL     1      -1.962  44.487  51.846  1.00  0.00     0.101 A 
ATOM     14  C   UNL     1      -1.754  43.348  51.054  1.00  0.00     0.034 A 
ATOM     15  C   UNL     1      -2.630  45.599  51.302  1.00  0.00     0.151 A 
ATOM     16  C   UNL     1      -2.235  43.307  49.742  1.00  0.00     0.041 A 
ATOM     17  C   UNL     1      -3.104  45.555  49.987  1.00  0.00     0.080 A 
ATOM     18  C   UNL     1      -2.911  44.408  49.208  1.00  0.00     0.126 A 
ATOM     19  F   UNL     1      -2.779  46.738  52.025  1.00  0.00    -0.205 F 
ATOM     20  F   UNL     1      -3.373  44.371  47.934  1.00  0.00    -0.207 F 
ENDBRANCH  10  13
ENDBRANCH   1   7
BRANCH   4  21
ATOM     21  C   UNL     1       4.821  46.058  55.168  1.00  0.00     0.086 C 
ATOM     22  C   UNL     1       5.599  44.983  54.399  1.00  0.00     0.040 C 
ATOM     23  C   UNL     1       4.531  47.253  54.234  1.00  0.00     0.040 C 
ATOM     24  C   UNL     1       6.943  45.539  53.874  1.00  0.00     0.087 C 
ATOM     25  C   UNL     1       5.699  47.535  53.268  1.00  0.00     0.087 C 
ATOM     26  N   UNL     1       6.979  47.026  53.819  1.00  0.00    -0.296 NA
BRANCH  26  27
ATOM     27  C   UNL     1       8.138  47.531  53.028  1.00  0.00     0.083 C 
ATOM     28  C   UNL     1       7.815  48.828  52.259  1.00  0.00     0.030 C 
BRANCH  27  29
ATOM     29  C   UNL     1       8.582  46.493  52.012  1.00  0.00    -0.031 A 
ATOM     30  C   UNL     1       7.681  46.003  51.047  1.00  0.00     0.005 A 
ATOM     31  C   UNL     1       9.909  46.022  52.013  1.00  0.00     0.005 A 
ATOM     32  C   UNL     1       8.097  45.049  50.111  1.00  0.00     0.000 A 
ATOM     33  C   UNL     1      10.319  45.070  51.074  1.00  0.00     0.000 A 
ATOM     34  C   UNL     1       9.414  44.584  50.124  1.00  0.00     0.000 A 
ENDBRANCH  27  29
ENDBRANCH  26  27
ENDBRANCH   4  21
TORSDOF 5
ENDMDL
MODEL 2
REMARK VINA RESULT:    -8.806      6.112     11.389
REMARK INTER + INTRA:         -10.796
REMARK INTER:                  -9.935
REMARK INTRA:                  -0.861
REMARK UNBOUND:                 0.584
REMARK SMILES Cc1cc(NC(=O)NC2CCN([C@H](C)c3ccccc3)CC2)nn1-c1ccc(F)cc1F
REMARK SMILES IDX 5 1 6 2 7 3 8 4 4 7 2 8 3 9 24 10 23 11 1 12 25 13 26 14
REMARK SMILES IDX 31 15 27 16 30 17 28 18 32 19 29 20 9 21 10 22 22 23 11 24
REMARK SMILES IDX 21 25 12 26 13 27 14 28 15 29 16 30 20 31 17 32 19 33 18 34
REMARK H PARENT 5 5 8 6
ROOT
ATOM      1  N   UNL     1       5.487  41.157  48.565  1.00  0.00    -0.291 N 
ATOM      2  C   UNL     1       4.150  40.742  48.247  1.00  0.00     0.320 C 
ATOM      3  O   UNL     1       3.159  41.374  48.710  1.00  0.00    -0.248 OA
ATOM      4  N   UNL     1       3.942  39.591  47.416  1.00  0.00    -0.335 N 
ATOM      5  H   UNL     1       6.283  40.563  48.237  1.00  0.00     0.173 HD
ATOM      6  H   UNL     1       4.781  39.046  47.118  1.00  0.00     0.165 HD
ENDROOT
BRANCH   1   7
ATOM      7  C   UNL     1       5.796  42.336  49.322  1.00  0.00     0.156 A 
ATOM      8  C   UNL     1       6.789  44.110  50.092  1.00  0.00     0.043 A 
ATOM      9  C   UNL     1       6.901  43.137  49.117  1.00  0.00     0.072 A 
ATOM     10  N   UNL     1       5.663  43.882  50.808  1.00  0.00    -0.233 N 
ATOM     11  N   UNL     1       5.061  42.795  50.355  1.00  0.00    -0.150 NA
ATOM     12  C   UNL     1       7.811  45.164  50.388  1.00  0.00     0.067 C 
BRANCH  10  13
ATOM     13  C   UNL     1       5.179  44.635  51.928  1.00  0.00     0.101 A 
ATOM     14  C   UNL     1       5.397  44.162  53.231  1.00  0.00     0.034 A 
ATOM     15  C   UNL     1       4.445  45.819  51.733  1.00  0.00     0.151 A 
ATOM     16  C   UNL     1       4.912  44.879  54.330  1.00  0.00     0.041 A 
ATOM     17  C   UNL     1       3.957  46.529  52.835  1.00  0.00     0.080 A 
ATOM     18  C   UNL     1       4.194  46.063  54.133  1.00  0.00     0.126 A 
ATOM     19  F   UNL     1       4.160  46.257  50.481  1.00  0.00    -0.205 F 
ATOM     20  F   UNL     1       3.720  46.755  55.198  1.00  0.00    -0.207 F 
ENDBRANCH  10  13
ENDBRANCH   1   7
BRANCH   4  21
ATOM     21  C   UNL     1       2.600  39.140  47.027  1.00  0.00     0.086 C 
ATOM     22  C   UNL     1       2.258  39.621  45.612  1.00  0.00     0.040 C 
ATOM     23  C   UNL     1       2.496  37.601  47.088  1.00  0.00     0.040 C 
ATOM     24  C   UNL     1       0.823  39.207  45.215  1.00  0.00     0.087 C 
ATOM     25  C   UNL     1       1.332  37.061  46.232  1.00  0.00     0.087 C 
ATOM     26  N   UNL     1       0.285  38.094  46.047  1.00  0.00    -0.296 NA
BRANCH  26  27
ATOM     27  C   UNL     1      -0.951  37.502  45.460  1.00  0.00     0.083 C 
ATOM     28  C   UNL     1      -1.680  38.472  44.507  1.00  0.00     0.030 C 
BRANCH  27  29
ATOM     29  C   UNL     1      -1.928  37.113  46.555  1.00  0.00    -0.031 A 
ATOM     30  C   UNL     1      -1.913  35.815  47.101  1.00  0.00     0.005 A 
ATOM     31  C   UNL     1      -2.851  38.054  47.049  1.00  0.00     0.005 A 
ATOM     32  C   UNL     1      -2.813  35.463  48.113  1.00  0.00     0.000 A 
ATOM     33  C   UNL     1      -3.747  37.696  48.062  1.00  0.00     0.000 A 
ATOM     34  C   UNL     1      -3.729  36.402  48.593  1.00  0.00     0.000 A 
ENDBRANCH  27  29
ENDBRANCH  26  27
ENDBRANCH   4  21
TORSDOF 5
ENDMDL
MODEL 3
REMARK VINA RESULT:    -8.659      6.919     11.760
REMARK INTER + INTRA:         -10.606
REMARK INTER:                 -10.808
REMARK INTRA:                   0.202
REMARK UNBOUND:                 0.584
REMARK SMILES Cc1cc(NC(=O)NC2CCN([C@H](C)c3ccccc3)CC2)nn1-c1ccc(F)cc1F
REMARK SMILES IDX 5 1 6 2 7 3 8 4 4 7 2 8 3 9 24 10 23 11 1 12 25 13 26 14
REMARK SMILES IDX 31 15 27 16 30 17 28 18 32 19 29 20 9 21 10 22 22 23 11 24
REMARK SMILES IDX 21 25 12 26 13 27 14 28 15 29 16 30 20 31 17 32 19 33 18 34
REMARK H PARENT 5 5 8 6
ROOT
ATOM      1  N   UNL     1       5.240  41.645  48.638  1.00  0.00    -0.291 N 
ATOM      2  C   UNL     1       4.094  40.818  48.388  1.00  0.00     0.320 C 
ATOM      3  O   UNL     1       3.150  40.764  49.227  1.00  0.00    -0.248 OA
ATOM      4  N   UNL     1       4.031  40.035  47.188  1.00  0.00    -0.335 N 
ATOM      5  H   UNL     1       6.040  41.602  47.965  1.00  0.00     0.173 HD
ATOM      6  H   UNL     1       4.862  40.042  46.556  1.00  0.00     0.165 HD
ENDROOT
BRANCH   1   7
ATOM      7  C   UNL     1       5.359  42.520  49.769  1.00  0.00     0.156 A 
ATOM      8  C   UNL     1       5.097  43.440  51.721  1.00  0.00     0.043 A 
ATOM      9  C   UNL     1       4.700  42.350  50.970  1.00  0.00     0.072 A 
ATOM     10  N   UNL     1       5.955  44.186  50.987  1.00  0.00    -0.233 N 
ATOM     11  N   UNL     1       6.108  43.641  49.792  1.00  0.00    -0.150 NA
ATOM     12  C   UNL     1       4.565  43.802  53.074  1.00  0.00     0.067 C 
BRANCH  10  13
ATOM     13  C   UNL     1       6.585  45.415  51.373  1.00  0.00     0.101 A 
ATOM     14  C   UNL     1       5.875  46.350  52.141  1.00  0.00     0.034 A 
ATOM     15  C   UNL     1       7.892  45.716  50.947  1.00  0.00     0.151 A 
ATOM     16  C   UNL     1       6.474  47.560  52.506  1.00  0.00     0.041 A 
ATOM     17  C   UNL     1       8.484  46.930  51.309  1.00  0.00     0.080 A 
ATOM     18  C   UNL     1       7.778  47.850  52.093  1.00  0.00     0.126 A 
ATOM     19  F   UNL     1       8.571  44.859  50.143  1.00  0.00    -0.205 F 
ATOM     20  F   UNL     1       8.357  49.025  52.442  1.00  0.00    -0.207 F 
ENDBRANCH  10  13
ENDBRANCH   1   7
BRANCH   4  21
ATOM     21  C   UNL     1       2.869  39.199  46.860  1.00  0.00     0.086 C 
ATOM     22  C   UNL     1       2.118  39.770  45.651  1.00  0.00     0.040 C 
ATOM     23  C   UNL     1       3.301  37.747  46.561  1.00  0.00     0.040 C 
ATOM     24  C   UNL     1       0.856  38.934  45.335  1.00  0.00     0.087 C 
ATOM     25  C   UNL     1       2.242  36.981  45.741  1.00  0.00     0.087 C 
ATOM     26  N   UNL     1       0.895  37.570  45.931  1.00  0.00    -0.296 NA
BRANCH  26  27
ATOM     27  C   UNL     1      -0.161  36.681  45.367  1.00  0.00     0.083 C 
ATOM     28  C   UNL     1      -1.153  37.437  44.461  1.00  0.00     0.030 C 
BRANCH  27  29
ATOM     29  C   UNL     1      -0.961  36.028  46.480  1.00  0.00    -0.031 A 
ATOM     30  C   UNL     1      -0.436  34.932  47.192  1.00  0.00     0.005 A 
ATOM     31  C   UNL     1      -2.232  36.525  46.825  1.00  0.00     0.005 A 
ATOM     32  C   UNL     1      -1.176  34.337  48.220  1.00  0.00     0.000 A 
ATOM     33  C   UNL     1      -2.966  35.926  47.854  1.00  0.00     0.000 A 
ATOM     34  C   UNL     1      -2.439  34.833  48.551  1.00  0.00     0.000 A 
ENDBRANCH  27  29
ENDBRANCH  26  27
ENDBRANCH   4  21
TORSDOF 5
ENDMDL
MODEL 4
REMARK VINA RESULT:    -8.603      3.631     10.117
REMARK INTER + INTRA:         -10.534
REMARK INTER:                  -9.898
REMARK INTRA:                  -0.636
REMARK UNBOUND:                 0.584
REMARK SMILES Cc1cc(NC(=O)NC2CCN([C@H](C)c3ccccc3)CC2)nn1-c1ccc(F)cc1F
REMARK SMILES IDX 5 1 6 2 7 3 8 4 4 7 2 8 3 9 24 10 23 11 1 12 25 13 26 14
REMARK SMILES IDX 31 15 27 16 30 17 28 18 32 19 29 20 9 21 10 22 22 23 11 24
REMARK SMILES IDX 21 25 12 26 13 27 14 28 15 29 16 30 20 31 17 32 19 33 18 34
REMARK H PARENT 5 5 8 6
ROOT
ATOM      1  N   UNL     1       1.370  45.892  53.420  1.00  0.00    -0.291 N 
ATOM      2  C   UNL     1       0.724  45.336  52.264  1.00  0.00     0.320 C 
ATOM      3  O   UNL     1       1.401  44.736  51.382  1.00  0.00    -0.248 OA
ATOM      4  N   UNL     1      -0.694  45.482  52.104  1.00  0.00    -0.335 N 
ATOM      5  H   UNL     1       0.795  46.455  54.088  1.00  0.00     0.173 HD
ATOM      6  H   UNL     1      -1.209  46.052  52.811  1.00  0.00     0.165 HD
ENDROOT
BRANCH   1   7
ATOM      7  C   UNL     1       2.766  45.731  53.706  1.00  0.00     0.156 A 
ATOM      8  C   UNL     1       4.644  45.242  54.687  1.00  0.00     0.043 A 
ATOM      9  C   UNL     1       3.275  45.130  54.840  1.00  0.00     0.072 A 
ATOM     10  N   UNL     1       4.902  45.863  53.512  1.00  0.00    -0.233 N 
ATOM     11  N   UNL     1       3.764  46.178  52.916  1.00  0.00    -0.150 NA
ATOM     12  C   UNL     1       5.667  44.856  55.711  1.00  0.00     0.067 C 
BRANCH  10  13
ATOM     13  C   UNL     1       6.187  46.203  52.974  1.00  0.00     0.101 A 
ATOM     14  C   UNL     1       7.057  47.020  53.712  1.00  0.00     0.034 A 
ATOM     15  C   UNL     1       6.565  45.767  51.691  1.00  0.00     0.151 A 
ATOM     16  C   UNL     1       8.304  47.373  53.187  1.00  0.00     0.041 A 
ATOM     17  C   UNL     1       7.812  46.128  51.168  1.00  0.00     0.080 A 
ATOM     18  C   UNL     1       8.683  46.927  51.918  1.00  0.00     0.126 A 
ATOM     19  F   UNL     1       5.712  45.037  50.929  1.00  0.00    -0.205 F 
ATOM     20  F   UNL     1       9.890  47.274  51.408  1.00  0.00    -0.207 F 
ENDBRANCH  10  13
ENDBRANCH   1   7
BRANCH   4  21
ATOM     21  C   UNL     1      -1.416  44.904  50.963  1.00  0.00     0.086 C 
ATOM     22  C   UNL     1      -1.586  43.391  51.143  1.00  0.00     0.040 C 
ATOM     23  C   UNL     1      -2.801  45.564  50.795  1.00  0.00     0.040 C 
ATOM     24  C   UNL     1      -2.288  42.761  49.918  1.00  0.00     0.087 C 
ATOM     25  C   UNL     1      -3.770  44.685  49.978  1.00  0.00     0.087 C 
ATOM     26  N   UNL     1      -3.027  43.757  49.092  1.00  0.00    -0.296 NA
BRANCH  26  27
ATOM     27  C   UNL     1      -3.943  43.104  48.113  1.00  0.00     0.083 C 
ATOM     28  C   UNL     1      -3.955  41.568  48.244  1.00  0.00     0.030 C 
BRANCH  27  29
ATOM     29  C   UNL     1      -3.532  43.441  46.691  1.00  0.00    -0.031 A 
ATOM     30  C   UNL     1      -2.878  42.486  45.889  1.00  0.00     0.005 A 
ATOM     31  C   UNL     1      -3.817  44.710  46.152  1.00  0.00     0.005 A 
ATOM     32  C   UNL     1      -2.505  42.801  44.577  1.00  0.00     0.000 A 
ATOM     33  C   UNL     1      -3.443  45.018  44.840  1.00  0.00     0.000 A 
ATOM     34  C   UNL     1      -2.787  44.065  44.053  1.00  0.00     0.000 A 
ENDBRANCH  27  29
ENDBRANCH  26  27
ENDBRANCH   4  21
TORSDOF 5
ENDMDL
MODEL 5
REMARK VINA RESULT:    -8.599      7.380     10.138
REMARK INTER + INTRA:         -10.528
REMARK INTER:                 -10.379
REMARK INTRA:                  -0.150
REMARK UNBOUND:                 0.584
REMARK SMILES Cc1cc(NC(=O)NC2CCN([C@H](C)c3ccccc3)CC2)nn1-c1ccc(F)cc1F
REMARK SMILES IDX 5 1 6 2 7 3 8 4 4 7 2 8 3 9 24 10 23 11 1 12 25 13 26 14
REMARK SMILES IDX 31 15 27 16 30 17 28 18 32 19 29 20 9 21 10 22 22 23 11 24
REMARK SMILES IDX 21 25 12 26 13 27 14 28 15 29 16 30 20 31 17 32 19 33 18 34
REMARK H PARENT 5 5 8 6
ROOT
ATOM      1  N   UNL     1       3.182  41.478  51.044  1.00  0.00    -0.291 N 
ATOM      2  C   UNL     1       3.558  41.109  49.708  1.00  0.00     0.320 C 
ATOM      3  O   UNL     1       4.264  41.888  49.006  1.00  0.00    -0.248 OA
ATOM      4  N   UNL     1       3.114  39.859  49.165  1.00  0.00    -0.335 N 
ATOM      5  H   UNL     1       2.528  40.851  51.567  1.00  0.00     0.173 HD
ATOM      6  H   UNL     1       2.467  39.278  49.743  1.00  0.00     0.165 HD
ENDROOT
BRANCH   1   7
ATOM      7  C   UNL     1       3.639  42.669  51.700  1.00  0.00     0.156 A 
ATOM      8  C   UNL     1       3.718  44.482  52.897  1.00  0.00     0.043 A 
ATOM      9  C   UNL     1       2.874  43.445  52.548  1.00  0.00     0.072 A 
ATOM     10  N   UNL     1       4.913  44.295  52.289  1.00  0.00    -0.233 N 
ATOM     11  N   UNL     1       4.869  43.202  51.547  1.00  0.00    -0.150 NA
ATOM     12  C   UNL     1       3.332  45.680  53.710  1.00  0.00     0.067 C 
BRANCH  10  13
ATOM     13  C   UNL     1       6.065  45.148  52.359  1.00  0.00     0.101 A 
ATOM     14  C   UNL     1       6.573  45.728  51.186  1.00  0.00     0.034 A 
ATOM     15  C   UNL     1       6.721  45.367  53.583  1.00  0.00     0.151 A 
ATOM     16  C   UNL     1       7.707  46.544  51.241  1.00  0.00     0.041 A 
ATOM     17  C   UNL     1       7.859  46.180  53.631  1.00  0.00     0.080 A 
ATOM     18  C   UNL     1       8.349  46.772  52.462  1.00  0.00     0.126 A 
ATOM     19  F   UNL     1       6.291  44.759  54.717  1.00  0.00    -0.205 F 
ATOM     20  F   UNL     1       9.451  47.560  52.514  1.00  0.00    -0.207 F 
ENDBRANCH  10  13
ENDBRANCH   1   7
BRANCH   4  21
ATOM     21  C   UNL     1       3.496  39.411  47.820  1.00  0.00     0.086 C 
ATOM     22  C   UNL     1       2.679  38.180  47.409  1.00  0.00     0.040 C 
ATOM     23  C   UNL     1       3.290  40.536  46.783  1.00  0.00     0.040 C 
ATOM     24  C   UNL     1       3.118  37.659  46.021  1.00  0.00     0.087 C 
ATOM     25  C   UNL     1       3.184  39.991  45.345  1.00  0.00     0.087 C 
ATOM     26  N   UNL     1       3.858  38.676  45.223  1.00  0.00    -0.296 NA
BRANCH  26  27
ATOM     27  C   UNL     1       3.995  38.276  43.793  1.00  0.00     0.083 C 
ATOM     28  C   UNL     1       3.020  37.149  43.395  1.00  0.00     0.030 C 
BRANCH  27  29
ATOM     29  C   UNL     1       5.404  37.787  43.508  1.00  0.00    -0.031 A 
ATOM     30  C   UNL     1       6.444  38.702  43.258  1.00  0.00     0.005 A 
ATOM     31  C   UNL     1       5.689  36.408  43.509  1.00  0.00     0.005 A 
ATOM     32  C   UNL     1       7.741  38.246  42.999  1.00  0.00     0.000 A 
ATOM     33  C   UNL     1       6.989  35.958  43.252  1.00  0.00     0.000 A 
ATOM     34  C   UNL     1       8.013  36.876  42.997  1.00  0.00     0.000 A 
ENDBRANCH  27  29
ENDBRANCH  26  27
ENDBRANCH   4  21
TORSDOF 5
ENDMDL
