ligand_93_conformer_1_docked
     RDKit          3D

 55 59  0  0  0  0  0  0  0  0999 V2000
   -1.0110   47.1900   57.7090 C   0  0  0  0  0  0  0  0  0  0  0  0
   -0.9270   45.7680   57.3430 N   0  0  0  0  0  0  0  0  0  0  0  0
    0.4720   45.3260   57.2080 C   0  0  0  0  0  0  0  0  0  0  0  0
    0.5480   44.4290   55.9880 C   0  0  0  0  0  0  0  0  0  0  0  0
   -0.5440   44.9640   55.0810 C   0  0  2  0  0  0  0  0  0  0  0  0
   -1.6060   45.4840   56.0630 C   0  0  1  0  0  0  0  0  0  0  0  0
   -2.6910   44.4230   56.3100 C   0  0  0  0  0  0  0  0  0  0  0  0
   -3.4110   44.0260   55.0140 C   0  0  0  0  0  0  0  0  0  0  0  0
   -2.4870   44.0080   53.7830 C   0  0  0  0  0  0  0  0  0  0  0  0
   -1.0710   43.9320   54.1680 N   0  0  0  0  0  0  0  0  0  0  0  0
   -0.1510   43.1430   53.3860 C   0  0  0  0  0  0  0  0  0  0  0  0
   -0.1110   41.8940   53.5580 O   0  0  0  0  0  0  0  0  0  0  0  0
    0.7700   43.7570   52.3510 C   0  0  2  0  0  0  0  0  0  0  0  0
    1.5360   42.6940   51.5560 C   0  0  0  0  0  0  0  0  0  0  0  0
    3.0130   43.0600   51.6400 C   0  0  0  0  0  0  0  0  0  0  0  0
    3.1160   44.2450   52.4820 N   0  0  0  0  0  0  0  0  0  0  0  0
    4.3840   44.8660   52.8260 C   0  0  0  0  0  0  0  0  0  0  0  0
    4.8990   44.7450   54.1350 C   0  0  0  0  0  0  0  0  0  0  0  0
    6.1130   45.3370   54.4910 C   0  0  0  0  0  0  0  0  0  0  0  0
    6.8480   46.0720   53.5550 C   0  0  0  0  0  0  0  0  0  0  0  0
    8.1310   46.7000   53.9350 C   0  0  0  0  0  0  0  0  0  0  0  0
    8.2780   47.5870   54.9410 N   0  0  0  0  0  0  0  0  0  0  0  0
    9.5650   47.8930   54.9410 N   0  0  0  0  0  0  0  0  0  0  0  0
   10.1690   47.2210   53.9760 N   0  0  0  0  0  0  0  0  0  0  0  0
    9.3080   46.4610   53.3230 N   0  0  0  0  0  0  0  0  0  0  0  0
    6.3520   46.2010   52.2500 C   0  0  0  0  0  0  0  0  0  0  0  0
    5.1390   45.6060   51.8830 C   0  0  0  0  0  0  0  0  0  0  0  0
    4.7310   45.7660   50.6010 F   0  0  0  0  0  0  0  0  0  0  0  0
    1.8150   44.7220   52.9290 C   0  0  0  0  0  0  0  0  0  0  0  0
   -1.0167   47.2869   58.8047 H   0  0  0  0  0  0  0  0  0  0  0  0
   -0.1430   47.7263   57.2980 H   0  0  0  0  0  0  0  0  0  0  0  0
   -1.9361   47.6204   57.2980 H   0  0  0  0  0  0  0  0  0  0  0  0
    1.1305   46.1971   57.0758 H   0  0  0  0  0  0  0  0  0  0  0  0
    0.7972   44.7850   58.1089 H   0  0  0  0  0  0  0  0  0  0  0  0
    1.5329   44.5068   55.5044 H   0  0  0  0  0  0  0  0  0  0  0  0
    0.4165   43.3645   56.2322 H   0  0  0  0  0  0  0  0  0  0  0  0
   -0.1827   45.7496   54.4011 H   0  0  0  0  0  0  0  0  0  0  0  0
   -2.0842   46.3823   55.6454 H   0  0  0  0  0  0  0  0  0  0  0  0
   -2.2207   43.5281   56.7437 H   0  0  0  0  0  0  0  0  0  0  0  0
   -3.4365   44.8520   56.9957 H   0  0  0  0  0  0  0  0  0  0  0  0
   -3.8366   43.0202   55.1454 H   0  0  0  0  0  0  0  0  0  0  0  0
   -4.1861   44.7839   54.8275 H   0  0  0  0  0  0  0  0  0  0  0  0
   -2.7355   43.1337   53.1634 H   0  0  0  0  0  0  0  0  0  0  0  0
   -2.6410   44.9432   53.2246 H   0  0  0  0  0  0  0  0  0  0  0  0
    0.0833   44.3209   51.7026 H   0  0  0  0  0  0  0  0  0  0  0  0
    1.3670   41.6991   51.9937 H   0  0  0  0  0  0  0  0  0  0  0  0
    1.1962   42.6625   50.5103 H   0  0  0  0  0  0  0  0  0  0  0  0
    3.5821   42.2306   52.0853 H   0  0  0  0  0  0  0  0  0  0  0  0
    3.4245   43.2554   50.6387 H   0  0  0  0  0  0  0  0  0  0  0  0
    4.3345   44.1747   54.8874 H   0  0  0  0  0  0  0  0  0  0  0  0
    6.4944   45.2242   55.5166 H   0  0  0  0  0  0  0  0  0  0  0  0
   11.1900   47.2800   53.7610 H   0  0  0  0  0  0  0  0  0  0  0  0
    6.9224   46.7763   51.5059 H   0  0  0  0  0  0  0  0  0  0  0  0
    1.7671   44.7191   54.0280 H   0  0  0  0  0  0  0  0  0  0  0  0
    1.6330   45.7524   52.5898 H   0  0  0  0  0  0  0  0  0  0  0  0
  1  2  1  0
  2  3  1  0
  3  4  1  0
  4  5  1  0
  5  6  1  0
  6  7  1  0
  7  8  1  0
  8  9  1  0
  9 10  1  0
 10 11  1  0
 11 12  2  0
 11 13  1  0
 13 14  1  0
 14 15  1  0
 15 16  1  0
 16 17  1  0
 17 18  2  0
 18 19  1  0
 19 20  2  0
 20 21  1  0
 21 22  1  0
 22 23  2  0
 23 24  1  0
 24 25  1  0
 20 26  1  0
 26 27  2  0
 27 28  1  0
 16 29  1  0
  6  2  1  0
 29 13  1  0
 10  5  1  0
 27 17  1  0
 25 21  2  0
  1 30  1  0
  1 31  1  0
  1 32  1  0
  3 33  1  0
  3 34  1  0
  4 35  1  0
  4 36  1  0
  5 37  1  6
  6 38  1  6
  7 39  1  0
  7 40  1  0
  8 41  1  0
  8 42  1  0
  9 43  1  0
  9 44  1  0
 13 45  1  6
 14 46  1  0
 14 47  1  0
 15 48  1  0
 15 49  1  0
 18 50  1  0
 19 51  1  0
 24 52  1  0
 26 53  1  0
 29 54  1  0
 29 55  1  0
M  END
>  <meeko>  (1) 
{"is_sidechain": [false], "free_energy": -9.105, "intermolecular_energy": -11.234, "internal_energy": -0.453}

$$$$
ligand_93_conformer_1_docked
     RDKit          3D

 55 59  0  0  0  0  0  0  0  0999 V2000
   -3.1840   45.0340   56.7920 C   0  0  0  0  0  0  0  0  0  0  0  0
   -2.3250   45.4940   55.6900 N   0  0  0  0  0  0  0  0  0  0  0  0
   -3.0810   45.6230   54.4330 C   0  0  0  0  0  0  0  0  0  0  0  0
   -2.2070   45.0820   53.3200 C   0  0  0  0  0  0  0  0  0  0  0  0
   -1.3630   44.0260   54.0080 C   0  0  2  0  0  0  0  0  0  0  0  0
   -1.2030   44.5680   55.4380 C   0  0  1  0  0  0  0  0  0  0  0  0
    0.1150   45.3460   55.5860 C   0  0  0  0  0  0  0  0  0  0  0  0
    1.3370   44.4670   55.2810 C   0  0  0  0  0  0  0  0  0  0  0  0
    1.0890   43.4440   54.1580 C   0  0  0  0  0  0  0  0  0  0  0  0
   -0.0690   43.8140   53.3330 N   0  0  0  0  0  0  0  0  0  0  0  0
   -0.0430   43.5850   51.9090 C   0  0  0  0  0  0  0  0  0  0  0  0
   -1.0770   43.1400   51.3380 O   0  0  0  0  0  0  0  0  0  0  0  0
    1.1810   43.8700   51.0610 C   0  0  2  0  0  0  0  0  0  0  0  0
    1.9970   42.6040   50.7820 C   0  0  0  0  0  0  0  0  0  0  0  0
    3.4340   42.9060   51.1900 C   0  0  0  0  0  0  0  0  0  0  0  0
    3.4520   44.2600   51.7300 N   0  0  0  0  0  0  0  0  0  0  0  0
    4.6510   44.8840   52.2640 C   0  0  0  0  0  0  0  0  0  0  0  0
    4.9190   44.8330   53.6490 C   0  0  0  0  0  0  0  0  0  0  0  0
    6.0610   45.4290   54.1870 C   0  0  0  0  0  0  0  0  0  0  0  0
    6.9690   46.1010   53.3610 C   0  0  0  0  0  0  0  0  0  0  0  0
    8.1760   46.7340   53.9330 C   0  0  0  0  0  0  0  0  0  0  0  0
    8.1610   47.6510   54.9220 N   0  0  0  0  0  0  0  0  0  0  0  0
    9.4320   47.9510   55.1290 N   0  0  0  0  0  0  0  0  0  0  0  0
   10.1840   47.2470   54.3000 N   0  0  0  0  0  0  0  0  0  0  0  0
    9.4370   46.4710   53.5340 N   0  0  0  0  0  0  0  0  0  0  0  0
    6.7190   46.1600   51.9830 C   0  0  0  0  0  0  0  0  0  0  0  0
    5.5800   45.5600   51.4350 C   0  0  0  0  0  0  0  0  0  0  0  0
    5.4130   45.6490   50.0930 F   0  0  0  0  0  0  0  0  0  0  0  0
    2.1450   44.8980   51.6710 C   0  0  0  0  0  0  0  0  0  0  0  0
   -2.7132   45.2861   57.7537 H   0  0  0  0  0  0  0  0  0  0  0  0
   -4.1646   45.5277   56.7232 H   0  0  0  0  0  0  0  0  0  0  0  0
   -3.3166   43.9442   56.7232 H   0  0  0  0  0  0  0  0  0  0  0  0
   -4.0136   45.0430   54.4941 H   0  0  0  0  0  0  0  0  0  0  0  0
   -3.3433   46.6744   54.2441 H   0  0  0  0  0  0  0  0  0  0  0  0
   -2.8189   44.6366   52.5218 H   0  0  0  0  0  0  0  0  0  0  0  0
   -1.6021   45.8623   52.8349 H   0  0  0  0  0  0  0  0  0  0  0  0
   -1.8306   43.0305   53.9874 H   0  0  0  0  0  0  0  0  0  0  0  0
   -1.1957   43.7296   56.1501 H   0  0  0  0  0  0  0  0  0  0  0  0
    0.1060   46.1966   54.8886 H   0  0  0  0  0  0  0  0  0  0  0  0
    0.1933   45.6883   56.6284 H   0  0  0  0  0  0  0  0  0  0  0  0
    2.1698   45.1198   54.9804 H   0  0  0  0  0  0  0  0  0  0  0  0
    1.5638   43.8978   56.1946 H   0  0  0  0  0  0  0  0  0  0  0  0
    1.9819   43.3941   53.5175 H   0  0  0  0  0  0  0  0  0  0  0  0
    0.8822   42.4683   54.6220 H   0  0  0  0  0  0  0  0  0  0  0  0
    0.7581   44.2832   50.1334 H   0  0  0  0  0  0  0  0  0  0  0  0
    1.6047   41.7630   51.3726 H   0  0  0  0  0  0  0  0  0  0  0  0
    1.9394   42.3240   49.7198 H   0  0  0  0  0  0  0  0  0  0  0  0
    3.7669   42.1901   51.9559 H   0  0  0  0  0  0  0  0  0  0  0  0
    4.1116   42.8199   50.3278 H   0  0  0  0  0  0  0  0  0  0  0  0
    4.2152   44.3142   54.3165 H   0  0  0  0  0  0  0  0  0  0  0  0
    6.2487   45.3699   55.2693 H   0  0  0  0  0  0  0  0  0  0  0  0
   11.2260   47.2950   54.2590 H   0  0  0  0  0  0  0  0  0  0  0  0
    7.4270   46.6844   51.3244 H   0  0  0  0  0  0  0  0  0  0  0  0
    1.8127   45.1764   52.6820 H   0  0  0  0  0  0  0  0  0  0  0  0
    2.1793   45.8165   51.0666 H   0  0  0  0  0  0  0  0  0  0  0  0
  1  2  1  0
  2  3  1  0
  3  4  1  0
  4  5  1  0
  5  6  1  0
  6  7  1  0
  7  8  1  0
  8  9  1  0
  9 10  1  0
 10 11  1  0
 11 12  2  0
 11 13  1  0
 13 14  1  0
 14 15  1  0
 15 16  1  0
 16 17  1  0
 17 18  2  0
 18 19  1  0
 19 20  2  0
 20 21  1  0
 21 22  1  0
 22 23  2  0
 23 24  1  0
 24 25  1  0
 20 26  1  0
 26 27  2  0
 27 28  1  0
 16 29  1  0
  6  2  1  0
 29 13  1  0
 10  5  1  0
 27 17  1  0
 25 21  2  0
  1 30  1  0
  1 31  1  0
  1 32  1  0
  3 33  1  0
  3 34  1  0
  4 35  1  0
  4 36  1  0
  5 37  1  1
  6 38  1  1
  7 39  1  0
  7 40  1  0
  8 41  1  0
  8 42  1  0
  9 43  1  0
  9 44  1  0
 13 45  1  6
 14 46  1  0
 14 47  1  0
 15 48  1  0
 15 49  1  0
 18 50  1  0
 19 51  1  0
 24 52  1  0
 26 53  1  0
 29 54  1  0
 29 55  1  0
M  END
>  <meeko>  (2) 
{"is_sidechain": [false], "free_energy": -8.977, "intermolecular_energy": -11.19, "internal_energy": -0.339}

$$$$
ligand_93_conformer_1_docked
     RDKit          3D

 55 59  0  0  0  0  0  0  0  0999 V2000
    5.3160   41.3380   47.8760 C   0  0  0  0  0  0  0  0  0  0  0  0
    5.9700   41.6850   49.1460 N   0  0  0  0  0  0  0  0  0  0  0  0
    5.0420   41.5650   50.2830 C   0  0  0  0  0  0  0  0  0  0  0  0
    5.2850   42.7520   51.1940 C   0  0  0  0  0  0  0  0  0  0  0  0
    5.7510   43.8410   50.2470 C   0  0  2  0  0  0  0  0  0  0  0  0
    6.4890   43.0670   49.1430 C   0  0  1  0  0  0  0  0  0  0  0  0
    8.0010   43.0230   49.4210 C   0  0  0  0  0  0  0  0  0  0  0  0
    8.6130   44.4300   49.4920 C   0  0  0  0  0  0  0  0  0  0  0  0
    7.6740   45.4720   50.1260 C   0  0  0  0  0  0  0  0  0  0  0  0
    6.6110   44.8360   50.9160 N   0  0  0  0  0  0  0  0  0  0  0  0
    6.1670   45.4390   52.1490 C   0  0  0  0  0  0  0  0  0  0  0  0
    6.8630   45.2920   53.1910 O   0  0  0  0  0  0  0  0  0  0  0  0
    4.8950   46.2590   52.2420 C   0  0  2  0  0  0  0  0  0  0  0  0
    4.9930   47.3590   53.3030 C   0  0  0  0  0  0  0  0  0  0  0  0
    3.7810   47.2030   54.2130 C   0  0  0  0  0  0  0  0  0  0  0  0
    3.0370   46.0400   53.7440 N   0  0  0  0  0  0  0  0  0  0  0  0
    1.8330   45.5540   54.3960 C   0  0  0  0  0  0  0  0  0  0  0  0
    1.8190   45.3480   55.7930 C   0  0  0  0  0  0  0  0  0  0  0  0
    0.6760   44.8760   56.4430 C   0  0  0  0  0  0  0  0  0  0  0  0
   -0.4860   44.5890   55.7180 C   0  0  0  0  0  0  0  0  0  0  0  0
   -1.6940   44.0870   56.4080 C   0  0  0  0  0  0  0  0  0  0  0  0
   -2.4040   43.0100   56.0150 N   0  0  0  0  0  0  0  0  0  0  0  0
   -3.3880   42.9110   56.8930 N   0  0  0  0  0  0  0  0  0  0  0  0
   -3.2780   43.8860   57.7780 N   0  0  0  0  0  0  0  0  0  0  0  0
   -2.2300   44.6460   57.5110 N   0  0  0  0  0  0  0  0  0  0  0  0
   -0.4900   44.7890   54.3310 C   0  0  0  0  0  0  0  0  0  0  0  0
    0.6490   45.2680   53.6730 C   0  0  0  0  0  0  0  0  0  0  0  0
    0.5640   45.4460   52.3330 F   0  0  0  0  0  0  0  0  0  0  0  0
    3.6390   45.4370   52.5630 C   0  0  0  0  0  0  0  0  0  0  0  0
    4.3614   40.8315   48.0815 H   0  0  0  0  0  0  0  0  0  0  0  0
    5.1276   42.2548   47.2981 H   0  0  0  0  0  0  0  0  0  0  0  0
    5.9696   40.6680   47.2981 H   0  0  0  0  0  0  0  0  0  0  0  0
    4.0027   41.5742   49.9226 H   0  0  0  0  0  0  0  0  0  0  0  0
    5.2088   40.6210   50.8224 H   0  0  0  0  0  0  0  0  0  0  0  0
    4.3586   43.0486   51.7077 H   0  0  0  0  0  0  0  0  0  0  0  0
    6.0140   42.5374   51.9893 H   0  0  0  0  0  0  0  0  0  0  0  0
    4.9197   44.4431   49.8514 H   0  0  0  0  0  0  0  0  0  0  0  0
    6.3263   43.5627   48.1746 H   0  0  0  0  0  0  0  0  0  0  0  0
    8.1712   42.5126   50.3805 H   0  0  0  0  0  0  0  0  0  0  0  0
    8.4837   42.4834   48.5928 H   0  0  0  0  0  0  0  0  0  0  0  0
    9.5342   44.3801   50.0911 H   0  0  0  0  0  0  0  0  0  0  0  0
    8.8072   44.7530   48.4586 H   0  0  0  0  0  0  0  0  0  0  0  0
    8.2624   46.1288   50.7835 H   0  0  0  0  0  0  0  0  0  0  0  0
    7.2019   46.0464   49.3153 H   0  0  0  0  0  0  0  0  0  0  0  0
    4.7935   46.6882   51.2343 H   0  0  0  0  0  0  0  0  0  0  0  0
    5.9199   47.2432   53.8839 H   0  0  0  0  0  0  0  0  0  0  0  0
    5.0111   48.3555   52.8375 H   0  0  0  0  0  0  0  0  0  0  0  0
    4.1072   47.0479   55.2520 H   0  0  0  0  0  0  0  0  0  0  0  0
    3.1530   48.1057   54.1853 H   0  0  0  0  0  0  0  0  0  0  0  0
    2.7242   45.5630   56.3798 H   0  0  0  0  0  0  0  0  0  0  0  0
    0.6895   44.7288   57.5330 H   0  0  0  0  0  0  0  0  0  0  0  0
   -3.9290   44.0350   58.5800 H   0  0  0  0  0  0  0  0  0  0  0  0
   -1.3989   44.5670   53.7525 H   0  0  0  0  0  0  0  0  0  0  0  0
    3.9120   44.3914   52.7682 H   0  0  0  0  0  0  0  0  0  0  0  0
    2.9373   45.4381   51.7159 H   0  0  0  0  0  0  0  0  0  0  0  0
  1  2  1  0
  2  3  1  0
  3  4  1  0
  4  5  1  0
  5  6  1  0
  6  7  1  0
  7  8  1  0
  8  9  1  0
  9 10  1  0
 10 11  1  0
 11 12  2  0
 11 13  1  0
 13 14  1  0
 14 15  1  0
 15 16  1  0
 16 17  1  0
 17 18  2  0
 18 19  1  0
 19 20  2  0
 20 21  1  0
 21 22  1  0
 22 23  2  0
 23 24  1  0
 24 25  1  0
 20 26  1  0
 26 27  2  0
 27 28  1  0
 16 29  1  0
  6  2  1  0
 29 13  1  0
 10  5  1  0
 27 17  1  0
 25 21  2  0
  1 30  1  0
  1 31  1  0
  1 32  1  0
  3 33  1  0
  3 34  1  0
  4 35  1  0
  4 36  1  0
  5 37  1  6
  6 38  1  6
  7 39  1  0
  7 40  1  0
  8 41  1  0
  8 42  1  0
  9 43  1  0
  9 44  1  0
 13 45  1  6
 14 46  1  0
 14 47  1  0
 15 48  1  0
 15 49  1  0
 18 50  1  0
 19 51  1  0
 24 52  1  0
 26 53  1  0
 29 54  1  0
 29 55  1  0
M  END
>  <meeko>  (3) 
{"is_sidechain": [false], "free_energy": -8.719, "intermolecular_energy": -10.573, "internal_energy": -0.638}

$$$$
ligand_93_conformer_1_docked
     RDKit          3D

 55 59  0  0  0  0  0  0  0  0999 V2000
    8.0520   48.1680   51.9420 C   0  0  0  0  0  0  0  0  0  0  0  0
    7.8290   46.7230   52.1040 N   0  0  0  0  0  0  0  0  0  0  0  0
    7.7420   46.0400   50.8020 C   0  0  0  0  0  0  0  0  0  0  0  0
    6.6180   45.0280   50.8940 C   0  0  0  0  0  0  0  0  0  0  0  0
    5.6590   45.6480   51.8930 C   0  0  2  0  0  0  0  0  0  0  0  0
    6.5810   46.4340   52.8390 C   0  0  1  0  0  0  0  0  0  0  0  0
    6.9290   45.6010   54.0830 C   0  0  0  0  0  0  0  0  0  0  0  0
    5.6760   45.2060   54.8780 C   0  0  0  0  0  0  0  0  0  0  0  0
    4.4560   44.9110   53.9870 C   0  0  0  0  0  0  0  0  0  0  0  0
    4.8510   44.6350   52.5990 N   0  0  0  0  0  0  0  0  0  0  0  0
    4.1540   43.6290   51.8350 C   0  0  0  0  0  0  0  0  0  0  0  0
    4.8190   42.7320   51.2480 O   0  0  0  0  0  0  0  0  0  0  0  0
    2.6430   43.5990   51.7180 C   0  0  2  0  0  0  0  0  0  0  0  0
    2.0730   44.9440   51.2580 C   0  0  0  0  0  0  0  0  0  0  0  0
    0.9950   45.3330   52.2630 C   0  0  0  0  0  0  0  0  0  0  0  0
    0.9690   44.2980   53.2880 N   0  0  0  0  0  0  0  0  0  0  0  0
    0.0890   44.3490   54.4440 C   0  0  0  0  0  0  0  0  0  0  0  0
   -1.2220   43.8310   54.3580 C   0  0  0  0  0  0  0  0  0  0  0  0
   -2.0890   43.8720   55.4510 C   0  0  0  0  0  0  0  0  0  0  0  0
   -1.6780   44.4370   56.6640 C   0  0  0  0  0  0  0  0  0  0  0  0
   -2.5990   44.4830   57.8190 C   0  0  0  0  0  0  0  0  0  0  0  0
   -2.9670   43.4070   58.5440 N   0  0  0  0  0  0  0  0  0  0  0  0
   -3.7860   43.8820   59.4680 N   0  0  0  0  0  0  0  0  0  0  0  0
   -3.9070   45.1890   59.3080 N   0  0  0  0  0  0  0  0  0  0  0  0
   -3.1800   45.6060   58.2870 N   0  0  0  0  0  0  0  0  0  0  0  0
   -0.3800   44.9560   56.7670 C   0  0  0  0  0  0  0  0  0  0  0  0
    0.4980   44.9120   55.6780 C   0  0  0  0  0  0  0  0  0  0  0  0
    1.7400   45.4220   55.8580 F   0  0  0  0  0  0  0  0  0  0  0  0
    1.9170   43.2270   53.0190 C   0  0  0  0  0  0  0  0  0  0  0  0
    8.1250   48.6410   52.9324 H   0  0  0  0  0  0  0  0  0  0  0  0
    8.9865   48.3348   51.3862 H   0  0  0  0  0  0  0  0  0  0  0  0
    7.2112   48.6087   51.3862 H   0  0  0  0  0  0  0  0  0  0  0  0
    7.5261   46.7703   50.0083 H   0  0  0  0  0  0  0  0  0  0  0  0
    8.6930   45.5426   50.5606 H   0  0  0  0  0  0  0  0  0  0  0  0
    6.1323   44.8909   49.9166 H   0  0  0  0  0  0  0  0  0  0  0  0
    6.9659   44.0300   51.1989 H   0  0  0  0  0  0  0  0  0  0  0  0
    4.9058   46.2906   51.4137 H   0  0  0  0  0  0  0  0  0  0  0  0
    6.0748   47.3546   53.1650 H   0  0  0  0  0  0  0  0  0  0  0  0
    7.4504   44.6865   53.7639 H   0  0  0  0  0  0  0  0  0  0  0  0
    7.5670   46.2146   54.7360 H   0  0  0  0  0  0  0  0  0  0  0  0
    5.9052   44.3046   55.4653 H   0  0  0  0  0  0  0  0  0  0  0  0
    5.4129   46.0620   55.5168 H   0  0  0  0  0  0  0  0  0  0  0  0
    3.9255   44.0346   54.3877 H   0  0  0  0  0  0  0  0  0  0  0  0
    3.8072   45.7993   53.9888 H   0  0  0  0  0  0  0  0  0  0  0  0
    2.4610   42.8131   50.9701 H   0  0  0  0  0  0  0  0  0  0  0  0
    2.8667   45.7054   51.2404 H   0  0  0  0  0  0  0  0  0  0  0  0
    1.6571   44.8695   50.2424 H   0  0  0  0  0  0  0  0  0  0  0  0
    1.2353   46.3062   52.7159 H   0  0  0  0  0  0  0  0  0  0  0  0
    0.0151   45.4203   51.7709 H   0  0  0  0  0  0  0  0  0  0  0  0
   -1.5662   43.3871   53.4122 H   0  0  0  0  0  0  0  0  0  0  0  0
   -3.1035   43.4570   55.3585 H   0  0  0  0  0  0  0  0  0  0  0  0
   -4.4970   45.8070   59.9080 H   0  0  0  0  0  0  0  0  0  0  0  0
   -0.0474   45.4033   57.7153 H   0  0  0  0  0  0  0  0  0  0  0  0
    2.6383   43.1425   53.8452 H   0  0  0  0  0  0  0  0  0  0  0  0
    1.4042   42.2585   52.9237 H   0  0  0  0  0  0  0  0  0  0  0  0
  1  2  1  0
  2  3  1  0
  3  4  1  0
  4  5  1  0
  5  6  1  0
  6  7  1  0
  7  8  1  0
  8  9  1  0
  9 10  1  0
 10 11  1  0
 11 12  2  0
 11 13  1  0
 13 14  1  0
 14 15  1  0
 15 16  1  0
 16 17  1  0
 17 18  2  0
 18 19  1  0
 19 20  2  0
 20 21  1  0
 21 22  1  0
 22 23  2  0
 23 24  1  0
 24 25  1  0
 20 26  1  0
 26 27  2  0
 27 28  1  0
 16 29  1  0
  6  2  1  0
 29 13  1  0
 10  5  1  0
 27 17  1  0
 25 21  2  0
  1 30  1  0
  1 31  1  0
  1 32  1  0
  3 33  1  0
  3 34  1  0
  4 35  1  0
  4 36  1  0
  5 37  1  6
  6 38  1  1
  7 39  1  0
  7 40  1  0
  8 41  1  0
  8 42  1  0
  9 43  1  0
  9 44  1  0
 13 45  1  6
 14 46  1  0
 14 47  1  0
 15 48  1  0
 15 49  1  0
 18 50  1  0
 19 51  1  0
 24 52  1  0
 26 53  1  0
 29 54  1  0
 29 55  1  0
M  END
>  <meeko>  (4) 
{"is_sidechain": [false], "free_energy": -8.557, "intermolecular_energy": -10.638, "internal_energy": -0.373}

$$$$
ligand_93_conformer_1_docked
     RDKit          3D

 55 59  0  0  0  0  0  0  0  0999 V2000
    9.5350   46.9990   52.6890 C   0  0  0  0  0  0  0  0  0  0  0  0
    8.3120   47.0060   51.8720 N   0  0  0  0  0  0  0  0  0  0  0  0
    7.1950   47.6590   52.5760 C   0  0  0  0  0  0  0  0  0  0  0  0
    5.9500   46.8340   52.3160 C   0  0  0  0  0  0  0  0  0  0  0  0
    6.4850   45.4250   52.1390 C   0  0  2  0  0  0  0  0  0  0  0  0
    7.8740   45.6420   51.5170 C   0  0  1  0  0  0  0  0  0  0  0  0
    7.8120   45.5310   49.9850 C   0  0  0  0  0  0  0  0  0  0  0  0
    7.3070   44.1540   49.5290 C   0  0  0  0  0  0  0  0  0  0  0  0
    6.2310   43.5610   50.4570 C   0  0  0  0  0  0  0  0  0  0  0  0
    5.6070   44.5930   51.2950 N   0  0  0  0  0  0  0  0  0  0  0  0
    4.1960   44.5310   51.5880 C   0  0  0  0  0  0  0  0  0  0  0  0
    3.3850   45.1460   50.8430 O   0  0  0  0  0  0  0  0  0  0  0  0
    3.6430   43.7410   52.7570 C   0  0  2  0  0  0  0  0  0  0  0  0
    2.5420   42.7660   52.3270 C   0  0  0  0  0  0  0  0  0  0  0  0
    1.3380   43.0370   53.2220 C   0  0  0  0  0  0  0  0  0  0  0  0
    1.6940   44.1470   54.0970 N   0  0  0  0  0  0  0  0  0  0  0  0
    0.7740   44.7170   55.0680 C   0  0  0  0  0  0  0  0  0  0  0  0
    1.2630   45.2270   56.2900 C   0  0  0  0  0  0  0  0  0  0  0  0
    0.4000   45.7750   57.2410 C   0  0  0  0  0  0  0  0  0  0  0  0
   -0.9790   45.8260   57.0050 C   0  0  0  0  0  0  0  0  0  0  0  0
   -1.8910   46.4030   58.0150 C   0  0  0  0  0  0  0  0  0  0  0  0
   -1.4920   47.1480   59.0660 N   0  0  0  0  0  0  0  0  0  0  0  0
   -2.6070   47.4580   59.7070 N   0  0  0  0  0  0  0  0  0  0  0  0
   -3.6350   46.9230   59.0710 N   0  0  0  0  0  0  0  0  0  0  0  0
   -3.2300   46.2540   58.0050 N   0  0  0  0  0  0  0  0  0  0  0  0
   -1.4800   45.3240   55.7960 C   0  0  0  0  0  0  0  0  0  0  0  0
   -0.6210   44.7800   54.8350 C   0  0  0  0  0  0  0  0  0  0  0  0
   -1.1800   44.3260   53.6870 F   0  0  0  0  0  0  0  0  0  0  0  0
    3.0590   44.6060   53.8830 C   0  0  0  0  0  0  0  0  0  0  0  0
    9.2638   47.0006   53.7550 H   0  0  0  0  0  0  0  0  0  0  0  0
   10.1228   46.0975   52.4615 H   0  0  0  0  0  0  0  0  0  0  0  0
   10.1331   47.8937   52.4615 H   0  0  0  0  0  0  0  0  0  0  0  0
    7.4020   47.6970   53.6557 H   0  0  0  0  0  0  0  0  0  0  0  0
    7.0595   48.6898   52.2168 H   0  0  0  0  0  0  0  0  0  0  0  0
    5.2585   46.8870   53.1698 H   0  0  0  0  0  0  0  0  0  0  0  0
    5.3784   47.1864   51.4447 H   0  0  0  0  0  0  0  0  0  0  0  0
    6.5338   44.8682   53.0864 H   0  0  0  0  0  0  0  0  0  0  0  0
    8.5695   44.8780   51.8947 H   0  0  0  0  0  0  0  0  0  0  0  0
    7.1313   46.3045   49.5999 H   0  0  0  0  0  0  0  0  0  0  0  0
    8.8306   45.6670   49.5925 H   0  0  0  0  0  0  0  0  0  0  0  0
    6.8804   44.2553   48.5201 H   0  0  0  0  0  0  0  0  0  0  0  0
    8.1674   43.4689   49.5489 H   0  0  0  0  0  0  0  0  0  0  0  0
    5.4540   43.0833   49.8421 H   0  0  0  0  0  0  0  0  0  0  0  0
    6.7156   42.8286   51.1193 H   0  0  0  0  0  0  0  0  0  0  0  0
    4.5233   43.2033   53.1391 H   0  0  0  0  0  0  0  0  0  0  0  0
    2.2762   42.9361   51.2732 H   0  0  0  0  0  0  0  0  0  0  0  0
    2.8787   41.7233   52.4241 H   0  0  0  0  0  0  0  0  0  0  0  0
    0.4651   43.3052   52.6088 H   0  0  0  0  0  0  0  0  0  0  0  0
    1.0785   42.1438   53.8093 H   0  0  0  0  0  0  0  0  0  0  0  0
    2.3428   45.1921   56.4967 H   0  0  0  0  0  0  0  0  0  0  0  0
    0.8070   46.1700   58.1835 H   0  0  0  0  0  0  0  0  0  0  0  0
   -4.6310   47.0170   59.3700 H   0  0  0  0  0  0  0  0  0  0  0  0
   -2.5619   45.3582   55.6004 H   0  0  0  0  0  0  0  0  0  0  0  0
    3.0609   45.6655   53.5872 H   0  0  0  0  0  0  0  0  0  0  0  0
    3.6561   44.5152   54.8024 H   0  0  0  0  0  0  0  0  0  0  0  0
  1  2  1  0
  2  3  1  0
  3  4  1  0
  4  5  1  0
  5  6  1  0
  6  7  1  0
  7  8  1  0
  8  9  1  0
  9 10  1  0
 10 11  1  0
 11 12  2  0
 11 13  1  0
 13 14  1  0
 14 15  1  0
 15 16  1  0
 16 17  1  0
 17 18  2  0
 18 19  1  0
 19 20  2  0
 20 21  1  0
 21 22  1  0
 22 23  2  0
 23 24  1  0
 24 25  1  0
 20 26  1  0
 26 27  2  0
 27 28  1  0
 16 29  1  0
  6  2  1  0
 29 13  1  0
 10  5  1  0
 27 17  1  0
 25 21  2  0
  1 30  1  0
  1 31  1  0
  1 32  1  0
  3 33  1  0
  3 34  1  0
  4 35  1  0
  4 36  1  0
  5 37  1  1
  6 38  1  1
  7 39  1  0
  7 40  1  0
  8 41  1  0
  8 42  1  0
  9 43  1  0
  9 44  1  0
 13 45  1  1
 14 46  1  0
 14 47  1  0
 15 48  1  0
 15 49  1  0
 18 50  1  0
 19 51  1  0
 24 52  1  0
 26 53  1  0
 29 54  1  0
 29 55  1  0
M  END
>  <meeko>  (5) 
{"is_sidechain": [false], "free_energy": -8.289, "intermolecular_energy": -10.066, "internal_energy": -0.614}

$$$$
