ligand_7_conformer_2_docked
     RDKit          3D

 46 48  0  0  0  0  0  0  0  0999 V2000
    0.8670   44.1760   50.8340 O   0  0  0  0  0  0  0  0  0  0  0  0
    1.6330   44.4310   51.8020 C   0  0  0  0  0  0  0  0  0  0  0  0
    1.1490   44.3300   53.1490 N   0  0  0  0  0  0  0  0  0  0  0  0
   -0.2160   43.9070   53.4760 C   0  0  0  0  0  0  0  0  0  0  0  0
   -0.5780   44.1520   54.9560 C   0  0  0  0  0  0  0  0  0  0  0  0
   -1.9410   44.8380   55.1390 C   0  0  0  0  0  0  0  0  0  0  0  0
   -2.2610   45.0320   56.6390 C   0  0  0  0  0  0  0  0  0  0  0  0
   -1.1400   44.8260   57.4880 O   0  0  0  0  0  0  0  0  0  0  0  0
   -0.0260   45.5530   57.0100 C   0  0  0  0  0  0  0  0  0  0  0  0
    0.5230   44.9260   55.7150 C   0  0  0  0  0  0  0  0  0  0  0  0
    3.0550   44.7400   51.5300 C   0  0  0  0  0  0  0  0  0  0  0  0
    3.4450   46.0850   51.4830 C   0  0  0  0  0  0  0  0  0  0  0  0
    4.7280   46.4190   51.2030 N   0  0  0  0  0  0  0  0  0  0  0  0
    5.6700   45.4660   50.9830 C   0  0  0  0  0  0  0  0  0  0  0  0
    7.0180   45.8260   50.6490 N   0  0  0  0  0  0  0  0  0  0  0  0
    7.9880   46.3000   51.5980 C   0  0  0  0  0  0  0  0  0  0  0  0
    9.3400   45.9630   51.4280 C   0  0  0  0  0  0  0  0  0  0  0  0
   10.2980   46.3920   52.3520 C   0  0  0  0  0  0  0  0  0  0  0  0
    9.9120   47.1490   53.4610 C   0  0  0  0  0  0  0  0  0  0  0  0
    8.5650   47.4690   53.6530 C   0  0  0  0  0  0  0  0  0  0  0  0
    7.6030   47.0420   52.7310 C   0  0  0  0  0  0  0  0  0  0  0  0
    5.3210   44.1550   51.0350 N   0  0  0  0  0  0  0  0  0  0  0  0
    4.0520   43.7540   51.3200 C   0  0  0  0  0  0  0  0  0  0  0  0
    3.7860   42.2710   51.3990 C   0  0  0  0  0  0  0  0  0  0  0  0
    4.9520   41.5680   51.1560 F   0  0  0  0  0  0  0  0  0  0  0  0
    2.8550   41.9110   50.4440 F   0  0  0  0  0  0  0  0  0  0  0  0
    3.3290   41.9160   52.6530 F   0  0  0  0  0  0  0  0  0  0  0  0
    1.8470   44.3380   53.9260 H   0  0  0  0  0  0  0  0  0  0  0  0
   -0.9193   44.4692   52.8441 H   0  0  0  0  0  0  0  0  0  0  0  0
   -0.2806   42.8242   53.2935 H   0  0  0  0  0  0  0  0  0  0  0  0
   -0.6547   43.1484   55.3998 H   0  0  0  0  0  0  0  0  0  0  0  0
   -1.9195   45.8205   54.6448 H   0  0  0  0  0  0  0  0  0  0  0  0
   -2.7189   44.2015   54.6920 H   0  0  0  0  0  0  0  0  0  0  0  0
   -2.6263   46.0589   56.7873 H   0  0  0  0  0  0  0  0  0  0  0  0
   -3.0152   44.2784   56.9095 H   0  0  0  0  0  0  0  0  0  0  0  0
   -0.3325   46.5897   56.8067 H   0  0  0  0  0  0  0  0  0  0  0  0
    0.7642   45.5297   57.7749 H   0  0  0  0  0  0  0  0  0  0  0  0
    0.9113   45.7251   55.0665 H   0  0  0  0  0  0  0  0  0  0  0  0
    1.3225   44.2196   55.9828 H   0  0  0  0  0  0  0  0  0  0  0  0
    2.7044   46.8754   51.6748 H   0  0  0  0  0  0  0  0  0  0  0  0
    7.2840   45.8180   49.6370 H   0  0  0  0  0  0  0  0  0  0  0  0
    9.6478   45.3577   50.5626 H   0  0  0  0  0  0  0  0  0  0  0  0
   11.3570   46.1331   52.2055 H   0  0  0  0  0  0  0  0  0  0  0  0
   10.6677   47.4929   54.1826 H   0  0  0  0  0  0  0  0  0  0  0  0
    8.2605   48.0578   54.5308 H   0  0  0  0  0  0  0  0  0  0  0  0
    6.5427   47.2868   52.8918 H   0  0  0  0  0  0  0  0  0  0  0  0
  1  2  2  0
  2  3  1  0
  3  4  1  0
  4  5  1  0
  5  6  1  0
  6  7  1  0
  7  8  1  0
  8  9  1  0
  9 10  1  0
  2 11  1  0
 11 12  2  0
 12 13  1  0
 13 14  2  0
 14 15  1  0
 15 16  1  0
 16 17  2  0
 17 18  1  0
 18 19  2  0
 19 20  1  0
 20 21  2  0
 14 22  1  0
 22 23  2  0
 23 24  1  0
 24 25  1  0
 24 26  1  0
 24 27  1  0
 10  5  1  0
 23 11  1  0
 21 16  1  0
  3 28  1  0
  4 29  1  0
  4 30  1  0
  5 31  1  0
  6 32  1  0
  6 33  1  0
  7 34  1  0
  7 35  1  0
  9 36  1  0
  9 37  1  0
 10 38  1  0
 10 39  1  0
 12 40  1  0
 15 41  1  0
 17 42  1  0
 18 43  1  0
 19 44  1  0
 20 45  1  0
 21 46  1  0
M  END
>  <meeko>  (1) 
{"is_sidechain": [false], "free_energy": -8.659, "intermolecular_energy": -11.696, "internal_energy": -0.623}

$$$$
ligand_7_conformer_2_docked
     RDKit          3D

 46 48  0  0  0  0  0  0  0  0999 V2000
    1.5060   42.8930   51.0590 O   0  0  0  0  0  0  0  0  0  0  0  0
    2.1830   43.3480   52.0200 C   0  0  0  0  0  0  0  0  0  0  0  0
    1.8000   43.0550   53.3720 N   0  0  0  0  0  0  0  0  0  0  0  0
    0.6520   42.2090   53.7090 C   0  0  0  0  0  0  0  0  0  0  0  0
   -0.5880   43.0250   54.1320 C   0  0  0  0  0  0  0  0  0  0  0  0
   -1.4820   43.4240   52.9480 C   0  0  0  0  0  0  0  0  0  0  0  0
   -2.7180   44.2150   53.4350 C   0  0  0  0  0  0  0  0  0  0  0  0
   -2.6140   44.6540   54.7820 O   0  0  0  0  0  0  0  0  0  0  0  0
   -1.3690   45.2910   54.9930 C   0  0  0  0  0  0  0  0  0  0  0  0
   -0.2190   44.2670   54.9740 C   0  0  0  0  0  0  0  0  0  0  0  0
    3.4220   44.1040   51.7310 C   0  0  0  0  0  0  0  0  0  0  0  0
    4.5060   43.4130   51.1750 C   0  0  0  0  0  0  0  0  0  0  0  0
    5.6740   44.0540   50.9250 N   0  0  0  0  0  0  0  0  0  0  0  0
    5.8180   45.3780   51.1840 C   0  0  0  0  0  0  0  0  0  0  0  0
    7.0690   46.0430   50.9530 N   0  0  0  0  0  0  0  0  0  0  0  0
    7.9720   46.4520   51.9930 C   0  0  0  0  0  0  0  0  0  0  0  0
    9.3570   46.3880   51.7680 C   0  0  0  0  0  0  0  0  0  0  0  0
   10.2550   46.7590   52.7740 C   0  0  0  0  0  0  0  0  0  0  0  0
    9.7790   47.1820   54.0170 C   0  0  0  0  0  0  0  0  0  0  0  0
    8.4040   47.2250   54.2600 C   0  0  0  0  0  0  0  0  0  0  0  0
    7.5010   46.8560   53.2570 C   0  0  0  0  0  0  0  0  0  0  0  0
    4.7780   46.0740   51.7110 N   0  0  0  0  0  0  0  0  0  0  0  0
    3.5770   45.4920   51.9770 C   0  0  0  0  0  0  0  0  0  0  0  0
    2.4760   46.3690   52.5180 C   0  0  0  0  0  0  0  0  0  0  0  0
    2.7590   47.6980   52.2560 F   0  0  0  0  0  0  0  0  0  0  0  0
    2.3780   46.2080   53.8860 F   0  0  0  0  0  0  0  0  0  0  0  0
    1.2660   46.0680   51.9240 F   0  0  0  0  0  0  0  0  0  0  0  0
    2.4840   43.2610   54.1340 H   0  0  0  0  0  0  0  0  0  0  0  0
    0.3909   41.6037   52.8284 H   0  0  0  0  0  0  0  0  0  0  0  0
    0.9428   41.5809   54.5639 H   0  0  0  0  0  0  0  0  0  0  0  0
   -1.1735   42.3446   54.7678 H   0  0  0  0  0  0  0  0  0  0  0  0
   -0.9029   44.0512   52.2542 H   0  0  0  0  0  0  0  0  0  0  0  0
   -1.8256   42.5097   52.4420 H   0  0  0  0  0  0  0  0  0  0  0  0
   -2.8435   45.0971   52.7898 H   0  0  0  0  0  0  0  0  0  0  0  0
   -3.5801   43.5339   53.3819 H   0  0  0  0  0  0  0  0  0  0  0  0
   -1.2043   46.0327   54.1975 H   0  0  0  0  0  0  0  0  0  0  0  0
   -1.3871   45.7818   55.9773 H   0  0  0  0  0  0  0  0  0  0  0  0
    0.6752   44.7401   54.5420 H   0  0  0  0  0  0  0  0  0  0  0  0
   -0.0262   43.9418   56.0070 H   0  0  0  0  0  0  0  0  0  0  0  0
    4.4089   42.3429   50.9396 H   0  0  0  0  0  0  0  0  0  0  0  0
    7.2960   46.3160   49.9690 H   0  0  0  0  0  0  0  0  0  0  0  0
    9.7376   46.0441   50.7949 H   0  0  0  0  0  0  0  0  0  0  0  0
   11.3380   46.7176   52.5859 H   0  0  0  0  0  0  0  0  0  0  0  0
   10.4865   47.4812   54.8043 H   0  0  0  0  0  0  0  0  0  0  0  0
    8.0303   47.5498   55.2423 H   0  0  0  0  0  0  0  0  0  0  0  0
    6.4195   46.8816   53.4565 H   0  0  0  0  0  0  0  0  0  0  0  0
  1  2  2  0
  2  3  1  0
  3  4  1  0
  4  5  1  0
  5  6  1  0
  6  7  1  0
  7  8  1  0
  8  9  1  0
  9 10  1  0
  2 11  1  0
 11 12  2  0
 12 13  1  0
 13 14  2  0
 14 15  1  0
 15 16  1  0
 16 17  2  0
 17 18  1  0
 18 19  2  0
 19 20  1  0
 20 21  2  0
 14 22  1  0
 22 23  2  0
 23 24  1  0
 24 25  1  0
 24 26  1  0
 24 27  1  0
 10  5  1  0
 23 11  1  0
 21 16  1  0
  3 28  1  0
  4 29  1  0
  4 30  1  0
  5 31  1  0
  6 32  1  0
  6 33  1  0
  7 34  1  0
  7 35  1  0
  9 36  1  0
  9 37  1  0
 10 38  1  0
 10 39  1  0
 12 40  1  0
 15 41  1  0
 17 42  1  0
 18 43  1  0
 19 44  1  0
 20 45  1  0
 21 46  1  0
M  END
>  <meeko>  (2) 
{"is_sidechain": [false], "free_energy": -8.611, "intermolecular_energy": -11.426, "internal_energy": -0.828}

$$$$
ligand_7_conformer_2_docked
     RDKit          3D

 46 48  0  0  0  0  0  0  0  0999 V2000
    1.4200   43.1380   50.7660 O   0  0  0  0  0  0  0  0  0  0  0  0
    2.1790   43.3950   51.7400 C   0  0  0  0  0  0  0  0  0  0  0  0
    1.8080   42.9930   53.0670 N   0  0  0  0  0  0  0  0  0  0  0  0
    0.5770   42.2550   53.3610 C   0  0  0  0  0  0  0  0  0  0  0  0
   -0.4450   43.0930   54.1570 C   0  0  0  0  0  0  0  0  0  0  0  0
   -1.5620   43.6780   53.2790 C   0  0  0  0  0  0  0  0  0  0  0  0
   -2.5680   44.4840   54.1340 C   0  0  0  0  0  0  0  0  0  0  0  0
   -2.1000   44.7600   55.4470 O   0  0  0  0  0  0  0  0  0  0  0  0
   -0.7910   45.2910   55.3970 C   0  0  0  0  0  0  0  0  0  0  0  0
    0.2250   44.2060   54.9930 C   0  0  0  0  0  0  0  0  0  0  0  0
    3.4910   44.0260   51.4790 C   0  0  0  0  0  0  0  0  0  0  0  0
    3.6250   45.4000   51.7130 C   0  0  0  0  0  0  0  0  0  0  0  0
    4.7980   46.0300   51.4560 N   0  0  0  0  0  0  0  0  0  0  0  0
    5.8740   45.3480   50.9880 C   0  0  0  0  0  0  0  0  0  0  0  0
    7.1010   46.0270   50.6820 N   0  0  0  0  0  0  0  0  0  0  0  0
    8.0900   46.3900   51.6590 C   0  0  0  0  0  0  0  0  0  0  0  0
    7.7150   47.1750   52.7610 C   0  0  0  0  0  0  0  0  0  0  0  0
    8.6660   47.5610   53.7110 C   0  0  0  0  0  0  0  0  0  0  0  0
   10.0020   47.1780   53.5620 C   0  0  0  0  0  0  0  0  0  0  0  0
   10.3900   46.4180   52.4560 C   0  0  0  0  0  0  0  0  0  0  0  0
    9.4420   46.0300   51.5020 C   0  0  0  0  0  0  0  0  0  0  0  0
    5.7750   44.0130   50.7640 N   0  0  0  0  0  0  0  0  0  0  0  0
    4.6290   43.3210   51.0110 C   0  0  0  0  0  0  0  0  0  0  0  0
    4.6440   41.8310   50.7700 C   0  0  0  0  0  0  0  0  0  0  0  0
    4.2170   41.1650   51.9050 F   0  0  0  0  0  0  0  0  0  0  0  0
    5.9290   41.4160   50.4800 F   0  0  0  0  0  0  0  0  0  0  0  0
    3.7970   41.4890   49.7340 F   0  0  0  0  0  0  0  0  0  0  0  0
    2.5370   43.0260   53.8140 H   0  0  0  0  0  0  0  0  0  0  0  0
    0.1158   41.9475   52.4109 H   0  0  0  0  0  0  0  0  0  0  0  0
    0.8498   41.3881   53.9807 H   0  0  0  0  0  0  0  0  0  0  0  0
   -0.9151   42.3823   54.8526 H   0  0  0  0  0  0  0  0  0  0  0  0
   -1.1165   44.3427   52.5242 H   0  0  0  0  0  0  0  0  0  0  0  0
   -2.0976   42.8499   52.7919 H   0  0  0  0  0  0  0  0  0  0  0  0
   -2.7687   45.4396   53.6275 H   0  0  0  0  0  0  0  0  0  0  0  0
   -3.4739   43.8683   54.2353 H   0  0  0  0  0  0  0  0  0  0  0  0
   -0.7606   46.1061   54.6590 H   0  0  0  0  0  0  0  0  0  0  0  0
   -0.5254   45.6681   56.3956 H   0  0  0  0  0  0  0  0  0  0  0  0
    1.0256   44.6688   54.3973 H   0  0  0  0  0  0  0  0  0  0  0  0
    0.6331   43.7541   55.9091 H   0  0  0  0  0  0  0  0  0  0  0  0
    2.7728   45.9724   52.1081 H   0  0  0  0  0  0  0  0  0  0  0  0
    7.2420   46.3470   49.6960 H   0  0  0  0  0  0  0  0  0  0  0  0
    6.6670   47.4883   52.8779 H   0  0  0  0  0  0  0  0  0  0  0  0
    8.3620   48.1672   54.5771 H   0  0  0  0  0  0  0  0  0  0  0  0
   10.7471   47.4747   54.3149 H   0  0  0  0  0  0  0  0  0  0  0  0
   11.4429   46.1238   52.3345 H   0  0  0  0  0  0  0  0  0  0  0  0
    9.7544   45.4418   50.6266 H   0  0  0  0  0  0  0  0  0  0  0  0
  1  2  2  0
  2  3  1  0
  3  4  1  0
  4  5  1  0
  5  6  1  0
  6  7  1  0
  7  8  1  0
  8  9  1  0
  9 10  1  0
  2 11  1  0
 11 12  2  0
 12 13  1  0
 13 14  2  0
 14 15  1  0
 15 16  1  0
 16 17  2  0
 17 18  1  0
 18 19  2  0
 19 20  1  0
 20 21  2  0
 14 22  1  0
 22 23  2  0
 23 24  1  0
 24 25  1  0
 24 26  1  0
 24 27  1  0
 10  5  1  0
 23 11  1  0
 21 16  1  0
  3 28  1  0
  4 29  1  0
  4 30  1  0
  5 31  1  0
  6 32  1  0
  6 33  1  0
  7 34  1  0
  7 35  1  0
  9 36  1  0
  9 37  1  0
 10 38  1  0
 10 39  1  0
 12 40  1  0
 15 41  1  0
 17 42  1  0
 18 43  1  0
 19 44  1  0
 20 45  1  0
 21 46  1  0
M  END
>  <meeko>  (3) 
{"is_sidechain": [false], "free_energy": -8.55, "intermolecular_energy": -11.443, "internal_energy": -0.729}

$$$$
ligand_7_conformer_2_docked
     RDKit          3D

 46 48  0  0  0  0  0  0  0  0999 V2000
    1.1810   44.9900   55.2870 O   0  0  0  0  0  0  0  0  0  0  0  0
    1.9920   44.5370   54.4340 C   0  0  0  0  0  0  0  0  0  0  0  0
    1.6930   43.3210   53.7320 N   0  0  0  0  0  0  0  0  0  0  0  0
    0.4510   42.5690   53.9330 C   0  0  0  0  0  0  0  0  0  0  0  0
   -0.6420   42.9380   52.9080 C   0  0  0  0  0  0  0  0  0  0  0  0
   -0.1250   42.9770   51.4620 C   0  0  0  0  0  0  0  0  0  0  0  0
   -1.2680   43.3240   50.4790 C   0  0  0  0  0  0  0  0  0  0  0  0
   -2.4360   43.8170   51.1220 O   0  0  0  0  0  0  0  0  0  0  0  0
   -2.0950   44.8390   52.0360 C   0  0  0  0  0  0  0  0  0  0  0  0
   -1.3630   44.2580   53.2610 C   0  0  0  0  0  0  0  0  0  0  0  0
    3.2000   45.3240   54.1040 C   0  0  0  0  0  0  0  0  0  0  0  0
    4.1610   45.5180   55.1040 C   0  0  0  0  0  0  0  0  0  0  0  0
    5.2680   46.2610   54.8600 N   0  0  0  0  0  0  0  0  0  0  0  0
    5.4850   46.8170   53.6410 C   0  0  0  0  0  0  0  0  0  0  0  0
    6.6400   47.6340   53.3990 N   0  0  0  0  0  0  0  0  0  0  0  0
    7.8920   47.1390   52.8970 C   0  0  0  0  0  0  0  0  0  0  0  0
    7.9190   46.4460   51.6760 C   0  0  0  0  0  0  0  0  0  0  0  0
    9.1220   45.9330   51.1800 C   0  0  0  0  0  0  0  0  0  0  0  0
   10.3050   46.0960   51.9050 C   0  0  0  0  0  0  0  0  0  0  0  0
   10.2850   46.7620   53.1330 C   0  0  0  0  0  0  0  0  0  0  0  0
    9.0840   47.2770   53.6340 C   0  0  0  0  0  0  0  0  0  0  0  0
    4.5760   46.6340   52.6490 N   0  0  0  0  0  0  0  0  0  0  0  0
    3.4500   45.8910   52.8280 C   0  0  0  0  0  0  0  0  0  0  0  0
    2.5310   45.7150   51.6450 C   0  0  0  0  0  0  0  0  0  0  0  0
    2.5970   44.4120   51.1850 F   0  0  0  0  0  0  0  0  0  0  0  0
    2.9180   46.5570   50.6210 F   0  0  0  0  0  0  0  0  0  0  0  0
    1.2190   45.9750   51.9930 F   0  0  0  0  0  0  0  0  0  0  0  0
    2.2670   43.0830   52.8920 H   0  0  0  0  0  0  0  0  0  0  0  0
    0.6712   41.4952   53.8413 H   0  0  0  0  0  0  0  0  0  0  0  0
    0.0678   42.8221   54.9325 H   0  0  0  0  0  0  0  0  0  0  0  0
   -1.3778   42.1226   52.9699 H   0  0  0  0  0  0  0  0  0  0  0  0
    0.6638   43.7395   51.3815 H   0  0  0  0  0  0  0  0  0  0  0  0
    0.2735   41.9849   51.2032 H   0  0  0  0  0  0  0  0  0  0  0  0
   -0.9051   44.0913   49.7793 H   0  0  0  0  0  0  0  0  0  0  0  0
   -1.5487   42.3924   49.9659 H   0  0  0  0  0  0  0  0  0  0  0  0
   -1.4385   45.5659   51.5353 H   0  0  0  0  0  0  0  0  0  0  0  0
   -3.0191   45.3282   52.3777 H   0  0  0  0  0  0  0  0  0  0  0  0
   -0.6207   44.9885   53.6150 H   0  0  0  0  0  0  0  0  0  0  0  0
   -2.1068   44.0495   54.0442 H   0  0  0  0  0  0  0  0  0  0  0  0
    4.0163   45.0638   56.0953 H   0  0  0  0  0  0  0  0  0  0  0  0
    6.5880   48.6390   53.6840 H   0  0  0  0  0  0  0  0  0  0  0  0
    6.9886   46.3057   51.1062 H   0  0  0  0  0  0  0  0  0  0  0  0
    9.1366   45.4004   50.2176 H   0  0  0  0  0  0  0  0  0  0  0  0
   11.2519   45.7001   51.5091 H   0  0  0  0  0  0  0  0  0  0  0  0
   11.2154   46.8819   53.7074 H   0  0  0  0  0  0  0  0  0  0  0  0
    9.0711   47.7911   54.6064 H   0  0  0  0  0  0  0  0  0  0  0  0
  1  2  2  0
  2  3  1  0
  3  4  1  0
  4  5  1  0
  5  6  1  0
  6  7  1  0
  7  8  1  0
  8  9  1  0
  9 10  1  0
  2 11  1  0
 11 12  2  0
 12 13  1  0
 13 14  2  0
 14 15  1  0
 15 16  1  0
 16 17  2  0
 17 18  1  0
 18 19  2  0
 19 20  1  0
 20 21  2  0
 14 22  1  0
 22 23  2  0
 23 24  1  0
 24 25  1  0
 24 26  1  0
 24 27  1  0
 10  5  1  0
 23 11  1  0
 21 16  1  0
  3 28  1  0
  4 29  1  0
  4 30  1  0
  5 31  1  0
  6 32  1  0
  6 33  1  0
  7 34  1  0
  7 35  1  0
  9 36  1  0
  9 37  1  0
 10 38  1  0
 10 39  1  0
 12 40  1  0
 15 41  1  0
 17 42  1  0
 18 43  1  0
 19 44  1  0
 20 45  1  0
 21 46  1  0
M  END
>  <meeko>  (4) 
{"is_sidechain": [false], "free_energy": -8.16, "intermolecular_energy": -10.9, "internal_energy": -0.745}

$$$$
ligand_7_conformer_2_docked
     RDKit          3D

 46 48  0  0  0  0  0  0  0  0999 V2000
    4.4490   40.7510   51.0920 O   0  0  0  0  0  0  0  0  0  0  0  0
    4.6100   41.5370   50.1200 C   0  0  0  0  0  0  0  0  0  0  0  0
    4.1510   41.1680   48.8120 N   0  0  0  0  0  0  0  0  0  0  0  0
    3.4590   39.9050   48.5370 C   0  0  0  0  0  0  0  0  0  0  0  0
    3.4100   39.5670   47.0320 C   0  0  0  0  0  0  0  0  0  0  0  0
    2.7780   40.6810   46.1830 C   0  0  0  0  0  0  0  0  0  0  0  0
    2.7810   40.2980   44.6850 C   0  0  0  0  0  0  0  0  0  0  0  0
    3.0720   38.9270   44.4520 O   0  0  0  0  0  0  0  0  0  0  0  0
    2.2700   38.1100   45.2820 C   0  0  0  0  0  0  0  0  0  0  0  0
    2.7180   38.2140   46.7510 C   0  0  0  0  0  0  0  0  0  0  0  0
    5.1880   42.8760   50.3690 C   0  0  0  0  0  0  0  0  0  0  0  0
    6.4390   43.1740   49.8120 C   0  0  0  0  0  0  0  0  0  0  0  0
    7.0250   44.3750   50.0410 N   0  0  0  0  0  0  0  0  0  0  0  0
    6.4120   45.3240   50.7930 C   0  0  0  0  0  0  0  0  0  0  0  0
    7.0550   46.5780   51.0630 N   0  0  0  0  0  0  0  0  0  0  0  0
    8.0980   46.7600   52.0340 C   0  0  0  0  0  0  0  0  0  0  0  0
    7.8300   47.4890   53.2040 C   0  0  0  0  0  0  0  0  0  0  0  0
    8.8370   47.6990   54.1520 C   0  0  0  0  0  0  0  0  0  0  0  0
   10.1220   47.1960   53.9330 C   0  0  0  0  0  0  0  0  0  0  0  0
   10.4050   46.4920   52.7610 C   0  0  0  0  0  0  0  0  0  0  0  0
    9.4010   46.2780   51.8090 C   0  0  0  0  0  0  0  0  0  0  0  0
    5.1940   45.0660   51.3340 N   0  0  0  0  0  0  0  0  0  0  0  0
    4.5480   43.8840   51.1340 C   0  0  0  0  0  0  0  0  0  0  0  0
    3.1780   43.7220   51.7440 C   0  0  0  0  0  0  0  0  0  0  0  0
    3.2180   42.7720   52.7500 F   0  0  0  0  0  0  0  0  0  0  0  0
    2.2830   43.2970   50.7810 F   0  0  0  0  0  0  0  0  0  0  0  0
    2.7390   44.9090   52.2990 F   0  0  0  0  0  0  0  0  0  0  0  0
    4.1030   41.9100   48.0780 H   0  0  0  0  0  0  0  0  0  0  0  0
    3.9847   39.0942   49.0626 H   0  0  0  0  0  0  0  0  0  0  0  0
    2.4217   40.0119   48.8870 H   0  0  0  0  0  0  0  0  0  0  0  0
    4.4628   39.4798   46.7255 H   0  0  0  0  0  0  0  0  0  0  0  0
    1.7407   40.8410   46.5123 H   0  0  0  0  0  0  0  0  0  0  0  0
    3.3671   41.6008   46.3131 H   0  0  0  0  0  0  0  0  0  0  0  0
    1.7879   40.5193   44.2669 H   0  0  0  0  0  0  0  0  0  0  0  0
    3.5765   40.8846   44.2023 H   0  0  0  0  0  0  0  0  0  0  0  0
    1.2217   38.4333   45.2012 H   0  0  0  0  0  0  0  0  0  0  0  0
    2.3755   37.0650   44.9550 H   0  0  0  0  0  0  0  0  0  0  0  0
    1.8363   38.1203   47.4021 H   0  0  0  0  0  0  0  0  0  0  0  0
    3.4379   37.4071   46.9526 H   0  0  0  0  0  0  0  0  0  0  0  0
    6.9491   42.4282   49.1846 H   0  0  0  0  0  0  0  0  0  0  0  0
    6.6820   47.4260   50.5770 H   0  0  0  0  0  0  0  0  0  0  0  0
    6.8230   47.8970   53.3759 H   0  0  0  0  0  0  0  0  0  0  0  0
    8.6168   48.2611   55.0715 H   0  0  0  0  0  0  0  0  0  0  0  0
   10.9103   47.3546   54.6836 H   0  0  0  0  0  0  0  0  0  0  0  0
   11.4194   46.1045   52.5852 H   0  0  0  0  0  0  0  0  0  0  0  0
    9.6312   45.7316   50.8825 H   0  0  0  0  0  0  0  0  0  0  0  0
  1  2  2  0
  2  3  1  0
  3  4  1  0
  4  5  1  0
  5  6  1  0
  6  7  1  0
  7  8  1  0
  8  9  1  0
  9 10  1  0
  2 11  1  0
 11 12  2  0
 12 13  1  0
 13 14  2  0
 14 15  1  0
 15 16  1  0
 16 17  2  0
 17 18  1  0
 18 19  2  0
 19 20  1  0
 20 21  2  0
 14 22  1  0
 22 23  2  0
 23 24  1  0
 24 25  1  0
 24 26  1  0
 24 27  1  0
 10  5  1  0
 23 11  1  0
 21 16  1  0
  3 28  1  0
  4 29  1  0
  4 30  1  0
  5 31  1  0
  6 32  1  0
  6 33  1  0
  7 34  1  0
  7 35  1  0
  9 36  1  0
  9 37  1  0
 10 38  1  0
 10 39  1  0
 12 40  1  0
 15 41  1  0
 17 42  1  0
 18 43  1  0
 19 44  1  0
 20 45  1  0
 21 46  1  0
M  END
>  <meeko>  (5) 
{"is_sidechain": [false], "free_energy": -8.122, "intermolecular_energy": -11.106, "internal_energy": -0.488}

$$$$
