MODEL 1
REMARK VINA RESULT:    -7.771      0.000      0.000
REMARK INTER + INTRA:         -10.270
REMARK INTER:                  -9.588
REMARK INTRA:                  -0.681
REMARK UNBOUND:                -0.681
REMARK SMILES O=C(Nc1ccc(-n2cccn2)nc1)[C@H]1C[C@H]1C1CCCC1
REMARK SMILES IDX 1 1 2 2 3 3 15 5 16 6 17 7 18 8 19 9 22 10 20 11 21 12 4 13
REMARK SMILES IDX 5 14 14 15 6 16 13 17 7 18 8 19 9 20 12 21 10 22 11 23
REMARK H PARENT 3 4
ROOT
ATOM      1  O   UNL     1       6.457  44.672  51.857  1.00  0.00    -0.274 OA
ATOM      2  C   UNL     1       6.632  45.916  51.757  1.00  0.00     0.227 C 
ATOM      3  N   UNL     1       5.725  46.838  52.378  1.00  0.00    -0.324 N 
ATOM      4  H   UNL     1       5.845  47.854  52.161  1.00  0.00     0.169 HD
ENDROOT
BRANCH   2   5
ATOM      5  C   UNL     1       7.806  46.451  50.983  1.00  0.00     0.082 C 
ATOM      6  C   UNL     1       8.113  47.936  51.158  1.00  0.00     0.018 C 
ATOM      7  C   UNL     1       9.029  46.896  51.792  1.00  0.00     0.005 C 
BRANCH   7   8
ATOM      8  C   UNL     1       8.979  46.880  53.339  1.00  0.00    -0.007 C 
ATOM      9  C   UNL     1       8.649  48.258  53.895  1.00  0.00     0.004 C 
ATOM     10  C   UNL     1      10.332  46.526  53.953  1.00  0.00     0.004 C 
ATOM     11  C   UNL     1       9.246  48.273  55.291  1.00  0.00     0.000 C 
ATOM     12  C   UNL     1      10.437  47.321  55.253  1.00  0.00     0.000 C 
ENDBRANCH   7   8
ENDBRANCH   2   5
BRANCH   3  13
ATOM     13  C   UNL     1       4.568  46.447  53.136  1.00  0.00     0.059 A 
ATOM     14  C   UNL     1       4.669  45.994  54.460  1.00  0.00     0.031 A 
ATOM     15  C   UNL     1       3.294  46.573  52.567  1.00  0.00     0.139 A 
ATOM     16  C   UNL     1       3.518  45.643  55.170  1.00  0.00     0.051 A 
ATOM     17  N   UNL     1       2.188  46.224  53.276  1.00  0.00    -0.235 NA
ATOM     18  C   UNL     1       2.263  45.759  54.555  1.00  0.00     0.153 A 
BRANCH  18  19
ATOM     19  N   UNL     1       1.062  45.402  55.258  1.00  0.00    -0.223 N 
ATOM     20  C   UNL     1       0.865  45.492  56.588  1.00  0.00     0.117 A 
ATOM     21  N   UNL     1      -0.031  44.927  54.678  1.00  0.00    -0.175 NA
ATOM     22  C   UNL     1      -0.411  45.057  56.870  1.00  0.00     0.042 A 
ATOM     23  C   UNL     1      -0.943  44.710  55.644  1.00  0.00     0.135 A 
ENDBRANCH  18  19
ENDBRANCH   3  13
TORSDOF 4
ENDMDL
MODEL 2
REMARK VINA RESULT:    -7.762      4.903      6.336
REMARK INTER + INTRA:         -10.258
REMARK INTER:                  -9.546
REMARK INTRA:                  -0.713
REMARK UNBOUND:                -0.681
REMARK SMILES O=C(Nc1ccc(-n2cccn2)nc1)[C@H]1C[C@H]1C1CCCC1
REMARK SMILES IDX 1 1 2 2 3 3 15 5 16 6 17 7 18 8 19 9 22 10 20 11 21 12 4 13
REMARK SMILES IDX 5 14 14 15 6 16 13 17 7 18 8 19 9 20 12 21 10 22 11 23
REMARK H PARENT 3 4
ROOT
ATOM      1  O   UNL     1       4.359  45.833  51.541  1.00  0.00    -0.274 OA
ATOM      2  C   UNL     1       4.709  45.227  52.590  1.00  0.00     0.227 C 
ATOM      3  N   UNL     1       4.829  43.797  52.607  1.00  0.00    -0.324 N 
ATOM      4  H   UNL     1       5.000  43.339  53.531  1.00  0.00     0.169 HD
ENDROOT
BRANCH   2   5
ATOM      5  C   UNL     1       5.013  46.004  53.841  1.00  0.00     0.082 C 
ATOM      6  C   UNL     1       6.032  45.383  54.794  1.00  0.00     0.018 C 
ATOM      7  C   UNL     1       6.417  46.604  53.966  1.00  0.00     0.005 C 
BRANCH   7   8
ATOM      8  C   UNL     1       7.480  46.312  52.880  1.00  0.00    -0.007 C 
ATOM      9  C   UNL     1       8.862  46.132  53.494  1.00  0.00     0.004 C 
ATOM     10  C   UNL     1       7.637  47.475  51.903  1.00  0.00     0.004 C 
ATOM     11  C   UNL     1       9.835  46.498  52.388  1.00  0.00     0.000 C 
ATOM     12  C   UNL     1       9.110  47.507  51.502  1.00  0.00     0.000 C 
ENDBRANCH   7   8
ENDBRANCH   2   5
BRANCH   3  13
ATOM     13  C   UNL     1       4.561  42.949  51.477  1.00  0.00     0.059 A 
ATOM     14  C   UNL     1       5.576  42.550  50.595  1.00  0.00     0.031 A 
ATOM     15  C   UNL     1       3.266  42.455  51.275  1.00  0.00     0.139 A 
ATOM     16  C   UNL     1       5.278  41.709  49.521  1.00  0.00     0.051 A 
ATOM     17  N   UNL     1       2.999  41.639  50.222  1.00  0.00    -0.235 NA
ATOM     18  C   UNL     1       3.963  41.257  49.339  1.00  0.00     0.153 A 
BRANCH  18  19
ATOM     19  N   UNL     1       3.626  40.394  48.241  1.00  0.00    -0.223 N 
ATOM     20  C   UNL     1       3.816  40.662  46.934  1.00  0.00     0.117 A 
ATOM     21  N   UNL     1       3.072  39.197  48.373  1.00  0.00    -0.175 NA
ATOM     22  C   UNL     1       3.365  39.588  46.198  1.00  0.00     0.042 A 
ATOM     23  C   UNL     1       2.904  38.688  47.138  1.00  0.00     0.135 A 
ENDBRANCH  18  19
ENDBRANCH   3  13
TORSDOF 4
ENDMDL
MODEL 3
REMARK VINA RESULT:    -7.720      1.940      3.104
REMARK INTER + INTRA:         -10.206
REMARK INTER:                  -9.826
REMARK INTRA:                  -0.380
REMARK UNBOUND:                -0.681
REMARK SMILES O=C(Nc1ccc(-n2cccn2)nc1)[C@H]1C[C@H]1C1CCCC1
REMARK SMILES IDX 1 1 2 2 3 3 15 5 16 6 17 7 18 8 19 9 22 10 20 11 21 12 4 13
REMARK SMILES IDX 5 14 14 15 6 16 13 17 7 18 8 19 9 20 12 21 10 22 11 23
REMARK H PARENT 3 4
ROOT
ATOM      1  O   UNL     1       7.070  46.394  54.931  1.00  0.00    -0.274 OA
ATOM      2  C   UNL     1       7.115  47.080  53.875  1.00  0.00     0.227 C 
ATOM      3  N   UNL     1       6.040  47.038  52.925  1.00  0.00    -0.324 N 
ATOM      4  H   UNL     1       6.184  47.528  52.012  1.00  0.00     0.169 HD
ENDROOT
BRANCH   2   5
ATOM      5  C   UNL     1       8.303  47.961  53.601  1.00  0.00     0.082 C 
ATOM      6  C   UNL     1       9.648  47.469  54.130  1.00  0.00     0.018 C 
ATOM      7  C   UNL     1       9.362  47.422  52.633  1.00  0.00     0.005 C 
BRANCH   7   8
ATOM      8  C   UNL     1       9.231  45.988  52.067  1.00  0.00    -0.007 C 
ATOM      9  C   UNL     1      10.566  45.478  51.542  1.00  0.00     0.004 C 
ATOM     10  C   UNL     1       8.292  45.931  50.863  1.00  0.00     0.004 C 
ATOM     11  C   UNL     1      10.207  44.441  50.494  1.00  0.00     0.000 C 
ATOM     12  C   UNL     1       8.852  44.858  49.930  1.00  0.00     0.000 C 
ENDBRANCH   7   8
ENDBRANCH   2   5
BRANCH   3  13
ATOM     13  C   UNL     1       4.859  46.233  53.075  1.00  0.00     0.059 A 
ATOM     14  C   UNL     1       4.832  44.882  52.699  1.00  0.00     0.031 A 
ATOM     15  C   UNL     1       3.716  46.786  53.666  1.00  0.00     0.139 A 
ATOM     16  C   UNL     1       3.671  44.128  52.880  1.00  0.00     0.051 A 
ATOM     17  N   UNL     1       2.596  46.034  53.831  1.00  0.00    -0.235 NA
ATOM     18  C   UNL     1       2.539  44.727  53.452  1.00  0.00     0.153 A 
BRANCH  18  19
ATOM     19  N   UNL     1       1.328  43.978  53.647  1.00  0.00    -0.223 N 
ATOM     20  C   UNL     1       1.121  42.697  53.285  1.00  0.00     0.117 A 
ATOM     21  N   UNL     1       0.235  44.460  54.221  1.00  0.00    -0.175 NA
ATOM     22  C   UNL     1      -0.161  42.344  53.645  1.00  0.00     0.042 A 
ATOM     23  C   UNL     1      -0.687  43.478  54.229  1.00  0.00     0.135 A 
ENDBRANCH  18  19
ENDBRANCH   3  13
TORSDOF 4
ENDMDL
MODEL 4
REMARK VINA RESULT:    -7.350      1.544      1.821
REMARK INTER + INTRA:          -9.750
REMARK INTER:                  -9.043
REMARK INTRA:                  -0.706
REMARK UNBOUND:                -0.681
REMARK SMILES O=C(Nc1ccc(-n2cccn2)nc1)[C@H]1C[C@H]1C1CCCC1
REMARK SMILES IDX 1 1 2 2 3 3 15 5 16 6 17 7 18 8 19 9 22 10 20 11 21 12 4 13
REMARK SMILES IDX 5 14 14 15 6 16 13 17 7 18 8 19 9 20 12 21 10 22 11 23
REMARK H PARENT 3 4
ROOT
ATOM      1  O   UNL     1       4.835  45.971  50.870  1.00  0.00    -0.274 OA
ATOM      2  C   UNL     1       5.584  45.010  51.193  1.00  0.00     0.227 C 
ATOM      3  N   UNL     1       5.236  44.139  52.278  1.00  0.00    -0.324 N 
ATOM      4  H   UNL     1       5.950  43.438  52.582  1.00  0.00     0.169 HD
ENDROOT
BRANCH   2   5
ATOM      5  C   UNL     1       6.858  44.762  50.433  1.00  0.00     0.082 C 
ATOM      6  C   UNL     1       7.525  45.987  49.810  1.00  0.00     0.018 C 
ATOM      7  C   UNL     1       8.150  45.327  51.034  1.00  0.00     0.005 C 
BRANCH   7   8
ATOM      8  C   UNL     1       8.089  46.197  52.312  1.00  0.00    -0.007 C 
ATOM      9  C   UNL     1       7.991  47.677  51.968  1.00  0.00     0.004 C 
ATOM     10  C   UNL     1       9.361  46.076  53.149  1.00  0.00     0.004 C 
ATOM     11  C   UNL     1       8.575  48.401  53.168  1.00  0.00     0.000 C 
ATOM     12  C   UNL     1       9.590  47.445  53.787  1.00  0.00     0.000 C 
ENDBRANCH   7   8
ENDBRANCH   2   5
BRANCH   3  13
ATOM     13  C   UNL     1       4.050  44.278  53.078  1.00  0.00     0.059 A 
ATOM     14  C   UNL     1       4.012  45.113  54.206  1.00  0.00     0.031 A 
ATOM     15  C   UNL     1       2.877  43.613  52.698  1.00  0.00     0.139 A 
ATOM     16  C   UNL     1       2.834  45.236  54.945  1.00  0.00     0.051 A 
ATOM     17  N   UNL     1       1.742  43.747  53.434  1.00  0.00    -0.235 NA
ATOM     18  C   UNL     1       1.688  44.533  54.546  1.00  0.00     0.153 A 
BRANCH  18  19
ATOM     19  N   UNL     1       0.462  44.637  55.289  1.00  0.00    -0.223 N 
ATOM     20  C   UNL     1       0.292  45.303  56.448  1.00  0.00     0.117 A 
ATOM     21  N   UNL     1      -0.683  44.081  54.923  1.00  0.00    -0.175 NA
ATOM     22  C   UNL     1      -1.021  45.167  56.839  1.00  0.00     0.042 A 
ATOM     23  C   UNL     1      -1.603  44.392  55.856  1.00  0.00     0.135 A 
ENDBRANCH  18  19
ENDBRANCH   3  13
TORSDOF 4
ENDMDL
MODEL 5
REMARK VINA RESULT:    -7.159      2.283      8.011
REMARK INTER + INTRA:          -9.515
REMARK INTER:                  -9.191
REMARK INTRA:                  -0.324
REMARK UNBOUND:                -0.681
REMARK SMILES O=C(Nc1ccc(-n2cccn2)nc1)[C@H]1C[C@H]1C1CCCC1
REMARK SMILES IDX 1 1 2 2 3 3 15 5 16 6 17 7 18 8 19 9 22 10 20 11 21 12 4 13
REMARK SMILES IDX 5 14 14 15 6 16 13 17 7 18 8 19 9 20 12 21 10 22 11 23
REMARK H PARENT 3 4
ROOT
ATOM      1  O   UNL     1       1.844  45.294  51.959  1.00  0.00    -0.274 OA
ATOM      2  C   UNL     1       1.849  44.133  52.450  1.00  0.00     0.227 C 
ATOM      3  N   UNL     1       2.990  43.644  53.170  1.00  0.00    -0.324 N 
ATOM      4  H   UNL     1       2.990  42.636  53.447  1.00  0.00     0.169 HD
ENDROOT
BRANCH   2   5
ATOM      5  C   UNL     1       0.646  43.245  52.291  1.00  0.00     0.082 C 
ATOM      6  C   UNL     1       0.286  42.370  53.489  1.00  0.00     0.018 C 
ATOM      7  C   UNL     1      -0.582  43.575  53.145  1.00  0.00     0.005 C 
BRANCH   7   8
ATOM      8  C   UNL     1      -0.513  44.714  54.189  1.00  0.00    -0.007 C 
ATOM      9  C   UNL     1       0.296  44.296  55.409  1.00  0.00     0.004 C 
ATOM     10  C   UNL     1      -1.891  45.073  54.740  1.00  0.00     0.004 C 
ATOM     11  C   UNL     1      -0.230  45.156  56.544  1.00  0.00     0.000 C 
ATOM     12  C   UNL     1      -1.682  45.471  56.200  1.00  0.00     0.000 C 
ENDBRANCH   7   8
ENDBRANCH   2   5
BRANCH   3  13
ATOM     13  C   UNL     1       4.196  44.398  53.382  1.00  0.00     0.059 A 
ATOM     14  C   UNL     1       4.508  44.959  54.629  1.00  0.00     0.031 A 
ATOM     15  C   UNL     1       5.121  44.532  52.338  1.00  0.00     0.139 A 
ATOM     16  C   UNL     1       5.700  45.667  54.800  1.00  0.00     0.051 A 
ATOM     17  N   UNL     1       6.273  45.226  52.526  1.00  0.00    -0.235 NA
ATOM     18  C   UNL     1       6.586  45.800  53.722  1.00  0.00     0.153 A 
BRANCH  18  19
ATOM     19  N   UNL     1       7.818  46.526  53.865  1.00  0.00    -0.223 N 
ATOM     20  C   UNL     1       8.928  46.359  53.120  1.00  0.00     0.117 A 
ATOM     21  N   UNL     1       8.027  47.473  54.769  1.00  0.00    -0.175 NA
ATOM     22  C   UNL     1       9.889  47.240  53.566  1.00  0.00     0.042 A 
ATOM     23  C   UNL     1       9.286  47.922  54.603  1.00  0.00     0.135 A 
ENDBRANCH  18  19
ENDBRANCH   3  13
TORSDOF 4
ENDMDL
