ligand_64_conformer_4_docked
     RDKit          3D

 40 42  0  0  0  0  0  0  0  0999 V2000
    8.5070   45.5710   50.7830 O   0  0  0  0  0  0  0  0  0  0  0  0
    8.6220   46.1980   51.8710 C   0  0  0  0  0  0  0  0  0  0  0  0
    9.8940   46.8310   52.3230 C   0  0  0  0  0  0  0  0  0  0  0  0
    9.5280   47.4720   53.6750 C   0  0  0  0  0  0  0  0  0  0  0  0
    8.0910   47.1190   53.8660 C   0  0  0  0  0  0  0  0  0  0  0  0
    7.4460   47.3900   54.9130 O   0  0  0  0  0  0  0  0  0  0  0  0
    7.5450   46.3870   52.7760 N   0  0  0  0  0  0  0  0  0  0  0  0
    6.2270   45.8240   52.6590 C   0  0  0  0  0  0  0  0  0  0  0  0
    5.3200   46.2890   51.6930 C   0  0  0  0  0  0  0  0  0  0  0  0
    4.0500   45.7150   51.6080 C   0  0  0  0  0  0  0  0  0  0  0  0
    3.6900   44.6820   52.4790 C   0  0  0  0  0  0  0  0  0  0  0  0
    2.0890   43.9500   52.4020 S   0  0  0  0  0  0  0  0  0  0  0  0
    1.4560   43.9430   53.7660 O   0  0  0  0  0  0  0  0  0  0  0  0
    1.2300   44.7520   51.4660 O   0  0  0  0  0  0  0  0  0  0  0  0
    2.2160   42.3200   51.8140 N   0  0  0  0  0  0  0  0  0  0  0  0
    2.8550   42.3150   50.4960 C   0  0  0  0  0  0  0  0  0  0  0  0
    3.8970   41.1810   50.4130 C   0  0  1  0  0  0  0  0  0  0  0  0
    3.8390   40.4470   49.0980 C   0  0  0  0  0  0  0  0  0  0  0  0
    4.8540   41.1790   48.2410 C   0  0  0  0  0  0  0  0  0  0  0  0
    5.7300   41.9140   49.0690 O   0  0  0  0  0  0  0  0  0  0  0  0
    5.3160   41.7280   50.4030 C   0  0  0  0  0  0  0  0  0  0  0  0
    4.6250   44.2310   53.4160 C   0  0  0  0  0  0  0  0  0  0  0  0
    5.8550   44.8050   53.4840 N   0  0  0  0  0  0  0  0  0  0  0  0
   10.6839   46.0759   52.4488 H   0  0  0  0  0  0  0  0  0  0  0  0
   10.2855   47.5610   51.5992 H   0  0  0  0  0  0  0  0  0  0  0  0
   10.1440   47.0543   54.4850 H   0  0  0  0  0  0  0  0  0  0  0  0
    9.7021   48.5580   53.6890 H   0  0  0  0  0  0  0  0  0  0  0  0
    5.6081   47.1000   51.0079 H   0  0  0  0  0  0  0  0  0  0  0  0
    3.3327   46.0754   50.8559 H   0  0  0  0  0  0  0  0  0  0  0  0
    2.8340   41.8010   52.4800 H   0  0  0  0  0  0  0  0  0  0  0  0
    2.0890   42.1619   49.7215 H   0  0  0  0  0  0  0  0  0  0  0  0
    3.3608   43.2791   50.3389 H   0  0  0  0  0  0  0  0  0  0  0  0
    3.6672   40.5430   51.2791 H   0  0  0  0  0  0  0  0  0  0  0  0
    4.1192   39.3908   49.2242 H   0  0  0  0  0  0  0  0  0  0  0  0
    2.8317   40.4371   48.6561 H   0  0  0  0  0  0  0  0  0  0  0  0
    5.4311   40.4497   47.6535 H   0  0  0  0  0  0  0  0  0  0  0  0
    4.3301   41.8671   47.5613 H   0  0  0  0  0  0  0  0  0  0  0  0
    5.9890   41.0148   50.9013 H   0  0  0  0  0  0  0  0  0  0  0  0
    5.3461   42.6890   50.9373 H   0  0  0  0  0  0  0  0  0  0  0  0
    4.3643   43.4096   54.0997 H   0  0  0  0  0  0  0  0  0  0  0  0
  1  2  2  0
  2  3  1  0
  3  4  1  0
  4  5  1  0
  5  6  2  0
  5  7  1  0
  7  8  1  0
  8  9  2  0
  9 10  1  0
 10 11  2  0
 11 12  1  0
 12 13  2  0
 12 14  2  0
 12 15  1  0
 15 16  1  0
 16 17  1  0
 17 18  1  0
 18 19  1  0
 19 20  1  0
 20 21  1  0
 11 22  1  0
 22 23  2  0
  7  2  1  0
 23  8  1  0
 21 17  1  0
  3 24  1  0
  3 25  1  0
  4 26  1  0
  4 27  1  0
  9 28  1  0
 10 29  1  0
 15 30  1  0
 16 31  1  0
 16 32  1  0
 17 33  1  1
 18 34  1  0
 18 35  1  0
 19 36  1  0
 19 37  1  0
 21 38  1  0
 21 39  1  0
 22 40  1  0
M  END
>  <meeko>  (1) 
{"is_sidechain": [false], "free_energy": -8.272, "intermolecular_energy": -10.69, "internal_energy": -0.774}

$$$$
ligand_64_conformer_4_docked
     RDKit          3D

 40 42  0  0  0  0  0  0  0  0999 V2000
    8.2940   45.6010   50.7470 O   0  0  0  0  0  0  0  0  0  0  0  0
    8.5300   46.1980   51.8320 C   0  0  0  0  0  0  0  0  0  0  0  0
    9.8740   46.7260   52.2030 C   0  0  0  0  0  0  0  0  0  0  0  0
    9.6510   47.3690   53.5850 C   0  0  0  0  0  0  0  0  0  0  0  0
    8.2070   47.1210   53.8700 C   0  0  0  0  0  0  0  0  0  0  0  0
    7.6570   47.4220   54.9620 O   0  0  0  0  0  0  0  0  0  0  0  0
    7.5350   46.4520   52.8110 N   0  0  0  0  0  0  0  0  0  0  0  0
    6.1720   45.9910   52.7790 C   0  0  0  0  0  0  0  0  0  0  0  0
    5.7850   44.8160   53.4430 C   0  0  0  0  0  0  0  0  0  0  0  0
    4.4520   44.4030   53.3930 C   0  0  0  0  0  0  0  0  0  0  0  0
    3.5130   45.1610   52.6860 C   0  0  0  0  0  0  0  0  0  0  0  0
    1.8280   44.6550   52.5950 S   0  0  0  0  0  0  0  0  0  0  0  0
    1.2950   44.8770   51.2070 O   0  0  0  0  0  0  0  0  0  0  0  0
    1.7380   43.1920   52.9270 O   0  0  0  0  0  0  0  0  0  0  0  0
    0.8780   45.5630   53.7320 N   0  0  0  0  0  0  0  0  0  0  0  0
    1.5900   45.6600   55.0090 C   0  0  0  0  0  0  0  0  0  0  0  0
    0.8020   44.9300   56.1150 C   0  0  1  0  0  0  0  0  0  0  0  0
    0.5290   45.8180   57.3020 C   0  0  0  0  0  0  0  0  0  0  0  0
   -0.8320   46.4110   56.9930 C   0  0  0  0  0  0  0  0  0  0  0  0
   -1.4820   45.6240   56.0200 O   0  0  0  0  0  0  0  0  0  0  0  0
   -0.6070   44.5810   55.6570 C   0  0  0  0  0  0  0  0  0  0  0  0
    3.9290   46.3360   52.0530 C   0  0  0  0  0  0  0  0  0  0  0  0
    5.2320   46.7180   52.1130 N   0  0  0  0  0  0  0  0  0  0  0  0
   10.6110   45.9117   52.2645 H   0  0  0  0  0  0  0  0  0  0  0  0
   10.2693   47.4374   51.4630 H   0  0  0  0  0  0  0  0  0  0  0  0
   10.2871   46.8922   54.3453 H   0  0  0  0  0  0  0  0  0  0  0  0
    9.9080   48.4384   53.6008 H   0  0  0  0  0  0  0  0  0  0  0  0
    6.5272   44.2245   53.9991 H   0  0  0  0  0  0  0  0  0  0  0  0
    4.1409   43.4827   53.9090 H   0  0  0  0  0  0  0  0  0  0  0  0
    0.7730   46.5280   53.3410 H   0  0  0  0  0  0  0  0  0  0  0  0
    2.5838   45.1997   54.9068 H   0  0  0  0  0  0  0  0  0  0  0  0
    1.6935   46.7204   55.2825 H   0  0  0  0  0  0  0  0  0  0  0  0
    1.4261   44.0570   56.3568 H   0  0  0  0  0  0  0  0  0  0  0  0
    0.5010   45.2328   58.2330 H   0  0  0  0  0  0  0  0  0  0  0  0
    1.3055   46.5822   57.4537 H   0  0  0  0  0  0  0  0  0  0  0  0
   -1.4384   46.4331   57.9105 H   0  0  0  0  0  0  0  0  0  0  0  0
   -0.7057   47.4343   56.6098 H   0  0  0  0  0  0  0  0  0  0  0  0
   -0.9294   43.6457   56.1379 H   0  0  0  0  0  0  0  0  0  0  0  0
   -0.6197   44.4502   54.5649 H   0  0  0  0  0  0  0  0  0  0  0  0
    3.2007   46.9523   51.5055 H   0  0  0  0  0  0  0  0  0  0  0  0
  1  2  2  0
  2  3  1  0
  3  4  1  0
  4  5  1  0
  5  6  2  0
  5  7  1  0
  7  8  1  0
  8  9  2  0
  9 10  1  0
 10 11  2  0
 11 12  1  0
 12 13  2  0
 12 14  2  0
 12 15  1  0
 15 16  1  0
 16 17  1  0
 17 18  1  0
 18 19  1  0
 19 20  1  0
 20 21  1  0
 11 22  1  0
 22 23  2  0
  7  2  1  0
 23  8  1  0
 21 17  1  0
  3 24  1  0
  3 25  1  0
  4 26  1  0
  4 27  1  0
  9 28  1  0
 10 29  1  0
 15 30  1  0
 16 31  1  0
 16 32  1  0
 17 33  1  1
 18 34  1  0
 18 35  1  0
 19 36  1  0
 19 37  1  0
 21 38  1  0
 21 39  1  0
 22 40  1  0
M  END
>  <meeko>  (2) 
{"is_sidechain": [false], "free_energy": -8.053, "intermolecular_energy": -10.284, "internal_energy": -0.897}

$$$$
ligand_64_conformer_4_docked
     RDKit          3D

 40 42  0  0  0  0  0  0  0  0999 V2000
    7.7180   45.6230   50.9960 O   0  0  0  0  0  0  0  0  0  0  0  0
    8.2850   46.2130   51.9550 C   0  0  0  0  0  0  0  0  0  0  0  0
    9.7070   46.6610   51.9180 C   0  0  0  0  0  0  0  0  0  0  0  0
    9.9210   47.3280   53.2900 C   0  0  0  0  0  0  0  0  0  0  0  0
    8.6060   47.1720   53.9770 C   0  0  0  0  0  0  0  0  0  0  0  0
    8.4060   47.5150   55.1720 O   0  0  0  0  0  0  0  0  0  0  0  0
    7.6250   46.5360   53.1690 N   0  0  0  0  0  0  0  0  0  0  0  0
    6.2850   46.1600   53.5350 C   0  0  0  0  0  0  0  0  0  0  0  0
    6.0330   44.9920   54.2720 C   0  0  0  0  0  0  0  0  0  0  0  0
    4.7190   44.6620   54.6120 C   0  0  0  0  0  0  0  0  0  0  0  0
    3.6660   45.4950   54.2200 C   0  0  0  0  0  0  0  0  0  0  0  0
    1.9980   45.0950   54.6240 S   0  0  0  0  0  0  0  0  0  0  0  0
    1.7300   45.3920   56.0730 O   0  0  0  0  0  0  0  0  0  0  0  0
    1.0780   45.9250   53.7740 O   0  0  0  0  0  0  0  0  0  0  0  0
    1.7060   43.4100   54.3140 N   0  0  0  0  0  0  0  0  0  0  0  0
    0.5840   43.2630   53.3840 C   0  0  0  0  0  0  0  0  0  0  0  0
    1.0840   42.7280   52.0270 C   0  0  1  0  0  0  0  0  0  0  0  0
    0.8940   43.7280   50.9150 C   0  0  0  0  0  0  0  0  0  0  0  0
    2.2130   44.4770   50.8850 C   0  0  0  0  0  0  0  0  0  0  0  0
    3.2040   43.7160   51.5420 O   0  0  0  0  0  0  0  0  0  0  0  0
    2.5930   42.5410   52.0230 C   0  0  0  0  0  0  0  0  0  0  0  0
    3.9550   46.6610   53.5040 C   0  0  0  0  0  0  0  0  0  0  0  0
    5.2410   46.9610   53.1810 N   0  0  0  0  0  0  0  0  0  0  0  0
   10.3842   45.8037   51.7897 H   0  0  0  0  0  0  0  0  0  0  0  0
    9.9160   47.3406   51.0787 H   0  0  0  0  0  0  0  0  0  0  0  0
   10.7183   46.8193   53.8518 H   0  0  0  0  0  0  0  0  0  0  0  0
   10.2319   48.3797   53.2052 H   0  0  0  0  0  0  0  0  0  0  0  0
    6.8647   44.3411   54.5796 H   0  0  0  0  0  0  0  0  0  0  0  0
    4.5125   43.7477   55.1876 H   0  0  0  0  0  0  0  0  0  0  0  0
    2.5660   43.0300   53.8540 H   0  0  0  0  0  0  0  0  0  0  0  0
   -0.1474   42.5577   53.8055 H   0  0  0  0  0  0  0  0  0  0  0  0
    0.1133   44.2454   53.2312 H   0  0  0  0  0  0  0  0  0  0  0  0
    0.5156   41.7977   51.8804 H   0  0  0  0  0  0  0  0  0  0  0  0
    0.7079   43.2204   49.9570 H   0  0  0  0  0  0  0  0  0  0  0  0
    0.0291   44.3885   51.0752 H   0  0  0  0  0  0  0  0  0  0  0  0
    2.5140   44.6468   49.8407 H   0  0  0  0  0  0  0  0  0  0  0  0
    2.0960   45.4440   51.3960 H   0  0  0  0  0  0  0  0  0  0  0  0
    2.8572   41.6954   51.3709 H   0  0  0  0  0  0  0  0  0  0  0  0
    2.9426   42.3345   53.0453 H   0  0  0  0  0  0  0  0  0  0  0  0
    3.1408   47.3362   53.2018 H   0  0  0  0  0  0  0  0  0  0  0  0
  1  2  2  0
  2  3  1  0
  3  4  1  0
  4  5  1  0
  5  6  2  0
  5  7  1  0
  7  8  1  0
  8  9  2  0
  9 10  1  0
 10 11  2  0
 11 12  1  0
 12 13  2  0
 12 14  2  0
 12 15  1  0
 15 16  1  0
 16 17  1  0
 17 18  1  0
 18 19  1  0
 19 20  1  0
 20 21  1  0
 11 22  1  0
 22 23  2  0
  7  2  1  0
 23  8  1  0
 21 17  1  0
  3 24  1  0
  3 25  1  0
  4 26  1  0
  4 27  1  0
  9 28  1  0
 10 29  1  0
 15 30  1  0
 16 31  1  0
 16 32  1  0
 17 33  1  6
 18 34  1  0
 18 35  1  0
 19 36  1  0
 19 37  1  0
 21 38  1  0
 21 39  1  0
 22 40  1  0
M  END
>  <meeko>  (3) 
{"is_sidechain": [false], "free_energy": -8.008, "intermolecular_energy": -9.949, "internal_energy": -1.174}

$$$$
ligand_64_conformer_4_docked
     RDKit          3D

 40 42  0  0  0  0  0  0  0  0999 V2000
    7.0830   42.9210   49.4350 O   0  0  0  0  0  0  0  0  0  0  0  0
    5.9650   42.3380   49.4400 C   0  0  0  0  0  0  0  0  0  0  0  0
    5.6280   41.2010   48.5360 C   0  0  0  0  0  0  0  0  0  0  0  0
    4.1840   40.8320   48.9280 C   0  0  0  0  0  0  0  0  0  0  0  0
    3.8390   41.8110   50.0000 C   0  0  0  0  0  0  0  0  0  0  0  0
    2.6950   41.8910   50.5190 O   0  0  0  0  0  0  0  0  0  0  0  0
    4.9110   42.6860   50.3250 N   0  0  0  0  0  0  0  0  0  0  0  0
    4.9040   43.7890   51.2480 C   0  0  0  0  0  0  0  0  0  0  0  0
    4.9410   45.1170   50.7940 C   0  0  0  0  0  0  0  0  0  0  0  0
    4.9290   46.1620   51.7200 C   0  0  0  0  0  0  0  0  0  0  0  0
    4.8760   45.8820   53.0890 C   0  0  0  0  0  0  0  0  0  0  0  0
    4.8740   47.1810   54.2790 S   0  0  0  0  0  0  0  0  0  0  0  0
    4.4440   48.4710   53.6380 O   0  0  0  0  0  0  0  0  0  0  0  0
    3.9100   46.8340   55.3790 O   0  0  0  0  0  0  0  0  0  0  0  0
    6.4670   47.3700   54.9470 N   0  0  0  0  0  0  0  0  0  0  0  0
    7.4430   46.6650   54.1120 C   0  0  0  0  0  0  0  0  0  0  0  0
    8.4740   47.6610   53.5410 C   0  0  1  0  0  0  0  0  0  0  0  0
    9.8800   47.1190   53.5940 C   0  0  0  0  0  0  0  0  0  0  0  0
   10.0540   46.4620   52.2380 C   0  0  0  0  0  0  0  0  0  0  0  0
    9.0860   46.9610   51.3410 O   0  0  0  0  0  0  0  0  0  0  0  0
    8.2760   47.8720   52.0480 C   0  0  0  0  0  0  0  0  0  0  0  0
    4.8210   44.5480   53.5050 C   0  0  0  0  0  0  0  0  0  0  0  0
    4.8360   43.5460   52.5870 N   0  0  0  0  0  0  0  0  0  0  0  0
    5.6805   41.5103   47.4817 H   0  0  0  0  0  0  0  0  0  0  0  0
    6.3248   40.3561   48.6388 H   0  0  0  0  0  0  0  0  0  0  0  0
    3.5062   40.9387   48.0683 H   0  0  0  0  0  0  0  0  0  0  0  0
    4.0898   39.7882   49.2620 H   0  0  0  0  0  0  0  0  0  0  0  0
    4.9792   45.3328   49.7160 H   0  0  0  0  0  0  0  0  0  0  0  0
    4.9612   47.2052   51.3727 H   0  0  0  0  0  0  0  0  0  0  0  0
    6.6910   48.3910   54.9220 H   0  0  0  0  0  0  0  0  0  0  0  0
    7.9643   45.9112   54.7202 H   0  0  0  0  0  0  0  0  0  0  0  0
    6.9163   46.1766   53.2789 H   0  0  0  0  0  0  0  0  0  0  0  0
    8.3334   48.5692   54.1455 H   0  0  0  0  0  0  0  0  0  0  0  0
   10.6096   47.9301   53.7351 H   0  0  0  0  0  0  0  0  0  0  0  0
   10.0416   46.4248   54.4318 H   0  0  0  0  0  0  0  0  0  0  0  0
   11.0597   46.6828   51.8509 H   0  0  0  0  0  0  0  0  0  0  0  0
    9.9290   45.3740   52.3412 H   0  0  0  0  0  0  0  0  0  0  0  0
    8.5594   48.9007   51.7808 H   0  0  0  0  0  0  0  0  0  0  0  0
    7.2200   47.7074   51.7878 H   0  0  0  0  0  0  0  0  0  0  0  0
    4.7655   44.3092   54.5773 H   0  0  0  0  0  0  0  0  0  0  0  0
  1  2  2  0
  2  3  1  0
  3  4  1  0
  4  5  1  0
  5  6  2  0
  5  7  1  0
  7  8  1  0
  8  9  2  0
  9 10  1  0
 10 11  2  0
 11 12  1  0
 12 13  2  0
 12 14  2  0
 12 15  1  0
 15 16  1  0
 16 17  1  0
 17 18  1  0
 18 19  1  0
 19 20  1  0
 20 21  1  0
 11 22  1  0
 22 23  2  0
  7  2  1  0
 23  8  1  0
 21 17  1  0
  3 24  1  0
  3 25  1  0
  4 26  1  0
  4 27  1  0
  9 28  1  0
 10 29  1  0
 15 30  1  0
 16 31  1  0
 16 32  1  0
 17 33  1  1
 18 34  1  0
 18 35  1  0
 19 36  1  0
 19 37  1  0
 21 38  1  0
 21 39  1  0
 22 40  1  0
M  END
>  <meeko>  (4) 
{"is_sidechain": [false], "free_energy": -7.976, "intermolecular_energy": -10.461, "internal_energy": -0.621}

$$$$
ligand_64_conformer_4_docked
     RDKit          3D

 40 42  0  0  0  0  0  0  0  0999 V2000
    8.7450   45.5850   50.8420 O   0  0  0  0  0  0  0  0  0  0  0  0
    8.7360   46.2150   51.9340 C   0  0  0  0  0  0  0  0  0  0  0  0
    9.9290   46.9190   52.4870 C   0  0  0  0  0  0  0  0  0  0  0  0
    9.4190   47.5350   53.8030 C   0  0  0  0  0  0  0  0  0  0  0  0
    7.9940   47.1000   53.8780 C   0  0  0  0  0  0  0  0  0  0  0  0
    7.2520   47.3320   54.8690 O   0  0  0  0  0  0  0  0  0  0  0  0
    7.5810   46.3410   52.7490 N   0  0  0  0  0  0  0  0  0  0  0  0
    6.3100   45.7040   52.5280 C   0  0  0  0  0  0  0  0  0  0  0  0
    5.5260   46.0130   51.4050 C   0  0  0  0  0  0  0  0  0  0  0  0
    4.3000   45.3720   51.2220 C   0  0  0  0  0  0  0  0  0  0  0  0
    3.8610   44.4250   52.1530 C   0  0  0  0  0  0  0  0  0  0  0  0
    2.3120   43.6100   51.9540 S   0  0  0  0  0  0  0  0  0  0  0  0
    1.3560   44.4930   51.2010 O   0  0  0  0  0  0  0  0  0  0  0  0
    2.5230   42.3410   51.1780 O   0  0  0  0  0  0  0  0  0  0  0  0
    1.6430   43.2290   53.5120 N   0  0  0  0  0  0  0  0  0  0  0  0
    0.2330   43.6250   53.5580 C   0  0  0  0  0  0  0  0  0  0  0  0
    0.0890   45.0060   54.2290 C   0  0  1  0  0  0  0  0  0  0  0  0
   -0.9000   44.9870   55.3660 C   0  0  0  0  0  0  0  0  0  0  0  0
   -0.0350   44.7040   56.5800 C   0  0  0  0  0  0  0  0  0  0  0  0
    1.3120   44.9970   56.2810 O   0  0  0  0  0  0  0  0  0  0  0  0
    1.3710   45.4170   54.9370 C   0  0  0  0  0  0  0  0  0  0  0  0
    4.6760   44.1270   53.2500 C   0  0  0  0  0  0  0  0  0  0  0  0
    5.8650   44.7650   53.4100 N   0  0  0  0  0  0  0  0  0  0  0  0
   10.7479   46.2100   52.6784 H   0  0  0  0  0  0  0  0  0  0  0  0
   10.3352   47.6721   51.7957 H   0  0  0  0  0  0  0  0  0  0  0  0
    9.9903   47.1516   54.6612 H   0  0  0  0  0  0  0  0  0  0  0  0
    9.5291   48.6292   53.8284 H   0  0  0  0  0  0  0  0  0  0  0  0
    5.8762   46.7562   50.6735 H   0  0  0  0  0  0  0  0  0  0  0  0
    3.6792   45.6114   50.3460 H   0  0  0  0  0  0  0  0  0  0  0  0
    1.6950   42.1900   53.6210 H   0  0  0  0  0  0  0  0  0  0  0  0
   -0.1637   43.6758   52.5333 H   0  0  0  0  0  0  0  0  0  0  0  0
   -0.3295   42.8818   54.1422 H   0  0  0  0  0  0  0  0  0  0  0  0
   -0.2045   45.6747   53.4064 H   0  0  0  0  0  0  0  0  0  0  0  0
   -1.4078   45.9580   55.4622 H   0  0  0  0  0  0  0  0  0  0  0  0
   -1.7002   44.2452   55.2266 H   0  0  0  0  0  0  0  0  0  0  0  0
   -0.3679   45.3306   57.4206 H   0  0  0  0  0  0  0  0  0  0  0  0
   -0.1256   43.6423   56.8531 H   0  0  0  0  0  0  0  0  0  0  0  0
    1.4788   46.5110   54.8976 H   0  0  0  0  0  0  0  0  0  0  0  0
    2.2341   44.9493   54.4407 H   0  0  0  0  0  0  0  0  0  0  0  0
    4.3537   43.3745   53.9848 H   0  0  0  0  0  0  0  0  0  0  0  0
  1  2  2  0
  2  3  1  0
  3  4  1  0
  4  5  1  0
  5  6  2  0
  5  7  1  0
  7  8  1  0
  8  9  2  0
  9 10  1  0
 10 11  2  0
 11 12  1  0
 12 13  2  0
 12 14  2  0
 12 15  1  0
 15 16  1  0
 16 17  1  0
 17 18  1  0
 18 19  1  0
 19 20  1  0
 20 21  1  0
 11 22  1  0
 22 23  2  0
  7  2  1  0
 23  8  1  0
 21 17  1  0
  3 24  1  0
  3 25  1  0
  4 26  1  0
  4 27  1  0
  9 28  1  0
 10 29  1  0
 15 30  1  0
 16 31  1  0
 16 32  1  0
 17 33  1  6
 18 34  1  0
 18 35  1  0
 19 36  1  0
 19 37  1  0
 21 38  1  0
 21 39  1  0
 22 40  1  0
M  END
>  <meeko>  (5) 
{"is_sidechain": [false], "free_energy": -7.843, "intermolecular_energy": -10.266, "internal_energy": -0.643}

$$$$
