MODEL 1
REMARK VINA RESULT:    -8.982      0.000      0.000
REMARK INTER + INTRA:         -11.361
REMARK INTER:                 -11.608
REMARK INTRA:                   0.247
REMARK UNBOUND:                 0.247
REMARK SMILES Cc1ccc(CC(C)(C)NC(=O)c2cc(-c3ccn(C)n3)on2)cc1
REMARK SMILES IDX 10 1 11 2 12 3 7 5 8 6 9 7 6 8 5 9 2 10 3 11 25 12 4 13
REMARK SMILES IDX 24 14 1 15 13 16 14 17 23 18 15 19 22 20 16 21 17 22 21 23
REMARK SMILES IDX 18 24 19 25 20 26
REMARK H PARENT 10 4
ROOT
ATOM      1  N   UNL     1       7.117  46.229  53.205  1.00  0.00    -0.345 N 
ATOM      2  C   UNL     1       5.870  46.887  53.509  1.00  0.00     0.273 C 
ATOM      3  O   UNL     1       5.656  48.065  53.116  1.00  0.00    -0.267 OA
ATOM      4  H   UNL     1       7.258  45.270  53.593  1.00  0.00     0.164 HD
ENDROOT
BRANCH   1   5
ATOM      5  C   UNL     1       8.201  46.805  52.380  1.00  0.00     0.039 C 
ATOM      6  C   UNL     1       8.437  48.276  52.790  1.00  0.00     0.035 C 
ATOM      7  C   UNL     1       9.499  46.013  52.663  1.00  0.00     0.035 C 
BRANCH   5   8
ATOM      8  C   UNL     1       7.820  46.682  50.874  1.00  0.00     0.063 C 
BRANCH   8   9
ATOM      9  C   UNL     1       7.350  45.306  50.458  1.00  0.00    -0.046 A 
ATOM     10  C   UNL     1       6.475  42.743  49.682  1.00  0.00    -0.051 A 
ATOM     11  C   UNL     1       5.639  43.578  50.440  1.00  0.00     0.004 A 
ATOM     12  C   UNL     1       7.757  43.189  49.332  1.00  0.00     0.004 A 
ATOM     13  C   UNL     1       6.070  44.853  50.816  1.00  0.00     0.004 A 
ATOM     14  C   UNL     1       8.189  44.464  49.710  1.00  0.00     0.004 A 
ATOM     15  C   UNL     1       6.028  41.361  49.313  1.00  0.00     0.044 C 
ENDBRANCH   8   9
ENDBRANCH   5   8
ENDBRANCH   1   5
BRANCH   2  16
ATOM     16  C   UNL     1       4.819  46.207  54.291  1.00  0.00     0.171 A 
ATOM     17  C   UNL     1       3.450  46.315  54.127  1.00  0.00     0.090 A 
ATOM     18  N   UNL     1       5.084  45.365  55.310  1.00  0.00    -0.074 NA
ATOM     19  C   UNL     1       2.942  45.488  55.107  1.00  0.00     0.187 A 
ATOM     20  O   UNL     1       3.939  44.955  55.772  1.00  0.00    -0.354 OA
BRANCH  19  21
ATOM     21  C   UNL     1       1.527  45.224  55.390  1.00  0.00     0.130 A 
ATOM     22  C   UNL     1       0.891  45.378  56.610  1.00  0.00     0.054 A 
ATOM     23  N   UNL     1       0.647  44.800  54.463  1.00  0.00    -0.170 NA
ATOM     24  C   UNL     1      -0.418  45.020  56.361  1.00  0.00     0.109 A 
ATOM     25  N   UNL     1      -0.523  44.668  55.066  1.00  0.00    -0.275 N 
ATOM     26  C   UNL     1      -1.752  44.289  54.383  1.00  0.00     0.173 C 
ENDBRANCH  19  21
ENDBRANCH   2  16
TORSDOF 5
ENDMDL
MODEL 2
REMARK VINA RESULT:    -8.566      2.170      4.290
REMARK INTER + INTRA:         -10.823
REMARK INTER:                 -11.118
REMARK INTRA:                   0.295
REMARK UNBOUND:                 0.247
REMARK SMILES Cc1ccc(CC(C)(C)NC(=O)c2cc(-c3ccn(C)n3)on2)cc1
REMARK SMILES IDX 10 1 11 2 12 3 7 5 8 6 9 7 6 8 5 9 2 10 3 11 25 12 4 13
REMARK SMILES IDX 24 14 1 15 13 16 14 17 23 18 15 19 22 20 16 21 17 22 21 23
REMARK SMILES IDX 18 24 19 25 20 26
REMARK H PARENT 10 4
ROOT
ATOM      1  N   UNL     1       5.726  43.294  50.385  1.00  0.00    -0.345 N 
ATOM      2  C   UNL     1       4.719  42.573  51.124  1.00  0.00     0.273 C 
ATOM      3  O   UNL     1       4.533  41.344  50.919  1.00  0.00    -0.267 OA
ATOM      4  H   UNL     1       5.807  44.319  50.563  1.00  0.00     0.164 HD
ENDROOT
BRANCH   1   5
ATOM      5  C   UNL     1       6.653  42.690  49.403  1.00  0.00     0.039 C 
ATOM      6  C   UNL     1       7.404  41.510  50.059  1.00  0.00     0.035 C 
ATOM      7  C   UNL     1       5.817  42.134  48.226  1.00  0.00     0.035 C 
BRANCH   5   8
ATOM      8  C   UNL     1       7.636  43.783  48.888  1.00  0.00     0.063 C 
BRANCH   8   9
ATOM      9  C   UNL     1       8.224  44.659  49.973  1.00  0.00    -0.046 A 
ATOM     10  C   UNL     1       9.318  46.288  51.992  1.00  0.00    -0.051 A 
ATOM     11  C   UNL     1      10.123  45.355  51.322  1.00  0.00     0.004 A 
ATOM     12  C   UNL     1       7.960  46.388  51.661  1.00  0.00     0.004 A 
ATOM     13  C   UNL     1       9.582  44.553  50.314  1.00  0.00     0.004 A 
ATOM     14  C   UNL     1       7.417  45.585  50.653  1.00  0.00     0.004 A 
ATOM     15  C   UNL     1       9.890  47.120  53.101  1.00  0.00     0.044 C 
ENDBRANCH   8   9
ENDBRANCH   5   8
ENDBRANCH   1   5
BRANCH   2  16
ATOM     16  C   UNL     1       3.879  43.251  52.130  1.00  0.00     0.171 A 
ATOM     17  C   UNL     1       2.563  42.970  52.451  1.00  0.00     0.090 A 
ATOM     18  N   UNL     1       4.316  44.277  52.888  1.00  0.00    -0.074 NA
ATOM     19  C   UNL     1       2.268  43.891  53.435  1.00  0.00     0.187 A 
ATOM     20  O   UNL     1       3.328  44.633  53.655  1.00  0.00    -0.354 OA
BRANCH  19  21
ATOM     21  C   UNL     1       0.991  44.047  54.140  1.00  0.00     0.130 A 
ATOM     22  C   UNL     1      -0.221  43.485  53.778  1.00  0.00     0.054 A 
ATOM     23  N   UNL     1       0.846  44.768  55.268  1.00  0.00    -0.170 NA
ATOM     24  C   UNL     1      -1.100  43.912  54.752  1.00  0.00     0.109 A 
ATOM     25  N   UNL     1      -0.427  44.690  55.621  1.00  0.00    -0.275 N 
ATOM     26  C   UNL     1      -0.974  45.285  56.832  1.00  0.00     0.173 C 
ENDBRANCH  19  21
ENDBRANCH   2  16
TORSDOF 5
ENDMDL
MODEL 3
REMARK VINA RESULT:    -8.465      2.788      5.014
REMARK INTER + INTRA:         -10.692
REMARK INTER:                 -10.817
REMARK INTRA:                   0.125
REMARK UNBOUND:                 0.247
REMARK SMILES Cc1ccc(CC(C)(C)NC(=O)c2cc(-c3ccn(C)n3)on2)cc1
REMARK SMILES IDX 10 1 11 2 12 3 7 5 8 6 9 7 6 8 5 9 2 10 3 11 25 12 4 13
REMARK SMILES IDX 24 14 1 15 13 16 14 17 23 18 15 19 22 20 16 21 17 22 21 23
REMARK SMILES IDX 18 24 19 25 20 26
REMARK H PARENT 10 4
ROOT
ATOM      1  N   UNL     1       2.139  44.603  52.891  1.00  0.00    -0.345 N 
ATOM      2  C   UNL     1       1.287  43.784  53.718  1.00  0.00     0.273 C 
ATOM      3  O   UNL     1       1.282  42.531  53.586  1.00  0.00    -0.267 OA
ATOM      4  H   UNL     1       2.071  45.637  53.013  1.00  0.00     0.164 HD
ENDROOT
BRANCH   1   5
ATOM      5  C   UNL     1       3.104  44.088  51.895  1.00  0.00     0.039 C 
ATOM      6  C   UNL     1       4.277  43.394  52.621  1.00  0.00     0.035 C 
ATOM      7  C   UNL     1       2.383  43.033  51.024  1.00  0.00     0.035 C 
BRANCH   5   8
ATOM      8  C   UNL     1       3.597  45.267  51.003  1.00  0.00     0.063 C 
BRANCH   8   9
ATOM      9  C   UNL     1       5.020  45.704  51.273  1.00  0.00    -0.046 A 
ATOM     10  C   UNL     1       7.669  46.518  51.777  1.00  0.00    -0.051 A 
ATOM     11  C   UNL     1       6.614  47.014  52.559  1.00  0.00     0.004 A 
ATOM     12  C   UNL     1       7.388  45.629  50.729  1.00  0.00     0.004 A 
ATOM     13  C   UNL     1       5.302  46.603  52.315  1.00  0.00     0.004 A 
ATOM     14  C   UNL     1       6.074  45.218  50.484  1.00  0.00     0.004 A 
ATOM     15  C   UNL     1       9.072  46.990  52.013  1.00  0.00     0.044 C 
ENDBRANCH   8   9
ENDBRANCH   5   8
ENDBRANCH   1   5
BRANCH   2  16
ATOM     16  C   UNL     1       0.398  44.386  54.730  1.00  0.00     0.171 A 
ATOM     17  C   UNL     1       0.669  45.469  55.547  1.00  0.00     0.090 A 
ATOM     18  N   UNL     1      -0.840  43.923  54.995  1.00  0.00    -0.074 NA
ATOM     19  C   UNL     1      -0.483  45.604  56.294  1.00  0.00     0.187 A 
ATOM     20  O   UNL     1      -1.336  44.675  55.933  1.00  0.00    -0.354 OA
BRANCH  19  21
ATOM     21  C   UNL     1      -0.746  46.607  57.332  1.00  0.00     0.130 A 
ATOM     22  C   UNL     1      -1.800  47.505  57.359  1.00  0.00     0.054 A 
ATOM     23  N   UNL     1       0.025  46.769  58.425  1.00  0.00    -0.170 NA
ATOM     24  C   UNL     1      -1.615  48.214  58.527  1.00  0.00     0.109 A 
ATOM     25  N   UNL     1      -0.504  47.754  59.133  1.00  0.00    -0.275 N 
ATOM     26  C   UNL     1       0.004  48.190  60.426  1.00  0.00     0.173 C 
ENDBRANCH  19  21
ENDBRANCH   2  16
TORSDOF 5
ENDMDL
MODEL 4
REMARK VINA RESULT:    -8.417      4.099      7.034
REMARK INTER + INTRA:         -10.631
REMARK INTER:                 -10.935
REMARK INTRA:                   0.305
REMARK UNBOUND:                 0.247
REMARK SMILES Cc1ccc(CC(C)(C)NC(=O)c2cc(-c3ccn(C)n3)on2)cc1
REMARK SMILES IDX 10 1 11 2 12 3 7 5 8 6 9 7 6 8 5 9 2 10 3 11 25 12 4 13
REMARK SMILES IDX 24 14 1 15 13 16 14 17 23 18 15 19 22 20 16 21 17 22 21 23
REMARK SMILES IDX 18 24 19 25 20 26
REMARK H PARENT 10 4
ROOT
ATOM      1  N   UNL     1       4.569  44.247  52.304  1.00  0.00    -0.345 N 
ATOM      2  C   UNL     1       3.848  43.027  52.041  1.00  0.00     0.273 C 
ATOM      3  O   UNL     1       2.959  42.625  52.838  1.00  0.00    -0.267 OA
ATOM      4  H   UNL     1       5.324  44.510  51.634  1.00  0.00     0.164 HD
ENDROOT
BRANCH   1   5
ATOM      5  C   UNL     1       4.314  45.154  53.445  1.00  0.00     0.039 C 
ATOM      6  C   UNL     1       2.793  45.261  53.692  1.00  0.00     0.035 C 
ATOM      7  C   UNL     1       4.965  44.541  54.707  1.00  0.00     0.035 C 
BRANCH   5   8
ATOM      8  C   UNL     1       4.946  46.547  53.143  1.00  0.00     0.063 C 
BRANCH   8   9
ATOM      9  C   UNL     1       6.421  46.506  52.810  1.00  0.00    -0.046 A 
ATOM     10  C   UNL     1       9.167  46.430  52.189  1.00  0.00    -0.051 A 
ATOM     11  C   UNL     1       8.213  46.072  51.225  1.00  0.00     0.004 A 
ATOM     12  C   UNL     1       8.742  46.807  53.471  1.00  0.00     0.004 A 
ATOM     13  C   UNL     1       6.851  46.119  51.530  1.00  0.00     0.004 A 
ATOM     14  C   UNL     1       7.378  46.853  53.777  1.00  0.00     0.004 A 
ATOM     15  C   UNL     1      10.631  46.342  51.874  1.00  0.00     0.044 C 
ENDBRANCH   8   9
ENDBRANCH   5   8
ENDBRANCH   1   5
BRANCH   2  16
ATOM     16  C   UNL     1       4.131  42.216  50.841  1.00  0.00     0.171 A 
ATOM     17  C   UNL     1       3.218  41.552  50.042  1.00  0.00     0.090 A 
ATOM     18  N   UNL     1       5.376  42.014  50.364  1.00  0.00    -0.074 NA
ATOM     19  C   UNL     1       4.007  40.957  49.079  1.00  0.00     0.187 A 
ATOM     20  O   UNL     1       5.262  41.258  49.311  1.00  0.00    -0.354 OA
BRANCH  19  21
ATOM     21  C   UNL     1       3.552  40.118  47.964  1.00  0.00     0.130 A 
ATOM     22  C   UNL     1       3.716  40.385  46.615  1.00  0.00     0.054 A 
ATOM     23  N   UNL     1       2.913  38.944  48.127  1.00  0.00    -0.170 NA
ATOM     24  C   UNL     1       3.137  39.306  45.981  1.00  0.00     0.109 A 
ATOM     25  N   UNL     1       2.656  38.469  46.919  1.00  0.00    -0.275 N 
ATOM     26  C   UNL     1       2.029  37.178  46.670  1.00  0.00     0.173 C 
ENDBRANCH  19  21
ENDBRANCH   2  16
TORSDOF 5
ENDMDL
MODEL 5
REMARK VINA RESULT:    -8.013      2.690      4.874
REMARK INTER + INTRA:         -10.108
REMARK INTER:                 -10.128
REMARK INTRA:                   0.020
REMARK UNBOUND:                 0.247
REMARK SMILES Cc1ccc(CC(C)(C)NC(=O)c2cc(-c3ccn(C)n3)on2)cc1
REMARK SMILES IDX 10 1 11 2 12 3 7 5 8 6 9 7 6 8 5 9 2 10 3 11 25 12 4 13
REMARK SMILES IDX 24 14 1 15 13 16 14 17 23 18 15 19 22 20 16 21 17 22 21 23
REMARK SMILES IDX 18 24 19 25 20 26
REMARK H PARENT 10 4
ROOT
ATOM      1  N   UNL     1       2.113  45.695  53.426  1.00  0.00    -0.345 N 
ATOM      2  C   UNL     1       1.486  44.397  53.411  1.00  0.00     0.273 C 
ATOM      3  O   UNL     1       1.944  43.473  52.687  1.00  0.00    -0.267 OA
ATOM      4  H   UNL     1       1.666  46.435  54.010  1.00  0.00     0.164 HD
ENDROOT
BRANCH   1   5
ATOM      5  C   UNL     1       3.342  46.051  52.684  1.00  0.00     0.039 C 
ATOM      6  C   UNL     1       3.032  46.126  51.173  1.00  0.00     0.035 C 
ATOM      7  C   UNL     1       3.802  47.452  53.152  1.00  0.00     0.035 C 
BRANCH   5   8
ATOM      8  C   UNL     1       4.449  44.998  52.992  1.00  0.00     0.063 C 
BRANCH   8   9
ATOM      9  C   UNL     1       5.858  45.469  52.708  1.00  0.00    -0.046 A 
ATOM     10  C   UNL     1       8.482  46.345  52.178  1.00  0.00    -0.051 A 
ATOM     11  C   UNL     1       7.636  45.964  51.125  1.00  0.00     0.004 A 
ATOM     12  C   UNL     1       8.015  46.267  53.498  1.00  0.00     0.004 A 
ATOM     13  C   UNL     1       6.332  45.538  51.387  1.00  0.00     0.004 A 
ATOM     14  C   UNL     1       6.710  45.840  53.761  1.00  0.00     0.004 A 
ATOM     15  C   UNL     1       9.895  46.763  51.899  1.00  0.00     0.044 C 
ENDBRANCH   8   9
ENDBRANCH   5   8
ENDBRANCH   1   5
BRANCH   2  16
ATOM     16  C   UNL     1       0.293  44.116  54.233  1.00  0.00     0.171 A 
ATOM     17  C   UNL     1      -0.211  44.881  55.270  1.00  0.00     0.090 A 
ATOM     18  N   UNL     1      -0.480  43.024  54.065  1.00  0.00    -0.074 NA
ATOM     19  C   UNL     1      -1.316  44.169  55.688  1.00  0.00     0.187 A 
ATOM     20  O   UNL     1      -1.431  43.090  54.950  1.00  0.00    -0.354 OA
BRANCH  19  21
ATOM     21  C   UNL     1      -2.235  44.527  56.775  1.00  0.00     0.130 A 
ATOM     22  C   UNL     1      -3.237  43.729  57.299  1.00  0.00     0.054 A 
ATOM     23  N   UNL     1      -2.201  45.708  57.421  1.00  0.00    -0.170 NA
ATOM     24  C   UNL     1      -3.802  44.500  58.294  1.00  0.00     0.109 A 
ATOM     25  N   UNL     1      -3.163  45.684  58.329  1.00  0.00    -0.275 N 
ATOM     26  C   UNL     1      -3.409  46.758  59.281  1.00  0.00     0.173 C 
ENDBRANCH  19  21
ENDBRANCH   2  16
TORSDOF 5
ENDMDL
