ligand_58_conformer_4_docked
     RDKit          3D

 45 48  0  0  0  0  0  0  0  0999 V2000
    2.4490   45.6390   53.7670 O   0  0  0  0  0  0  0  0  0  0  0  0
    3.5550   45.1690   53.3830 C   0  0  0  0  0  0  0  0  0  0  0  0
    3.5630   44.0580   52.4020 C   0  0  0  0  0  0  0  0  0  0  0  0
    2.3750   43.3270   52.1520 C   0  0  0  0  0  0  0  0  0  0  0  0
    2.3600   42.2790   51.2180 C   0  0  0  0  0  0  0  0  0  0  0  0
    3.5400   41.9890   50.5410 C   0  0  0  0  0  0  0  0  0  0  0  0
    3.8230   40.8140   49.3790 S   0  0  0  0  0  0  0  0  0  0  0  0
    5.4450   41.2670   49.2020 C   0  0  0  0  0  0  0  0  0  0  0  0
    5.7710   42.3020   50.0140 N   0  0  0  0  0  0  0  0  0  0  0  0
    4.7070   42.6990   50.7580 C   0  0  0  0  0  0  0  0  0  0  0  0
    4.7370   43.7420   51.6820 C   0  0  0  0  0  0  0  0  0  0  0  0
    4.7770   45.7380   53.8910 N   0  0  0  0  0  0  0  0  0  0  0  0
    5.8670   44.8720   54.3570 C   0  0  0  0  0  0  0  0  0  0  0  0
    7.2370   45.4080   53.9000 C   0  0  0  0  0  0  0  0  0  0  0  0
    7.3290   46.9740   53.7950 C   0  0  0  0  0  0  0  0  0  0  0  0
    7.1680   47.4520   52.3040 C   0  0  0  0  0  0  0  0  0  0  0  0
    8.4830   47.8590   51.6080 C   0  0  0  0  0  0  0  0  0  0  0  0
    9.6650   46.9570   51.9980 C   0  0  0  0  0  0  0  0  0  0  0  0
    9.4530   45.6500   51.5310 O   0  0  0  0  0  0  0  0  0  0  0  0
    9.8970   46.9390   53.5270 C   0  0  0  0  0  0  0  0  0  0  0  0
    8.6980   47.4540   54.3500 C   0  0  0  0  0  0  0  0  0  0  0  0
    6.2120   47.6170   54.6680 C   0  0  0  0  0  0  0  0  0  0  0  0
    4.8070   47.1650   54.2330 C   0  0  0  0  0  0  0  0  0  0  0  0
    1.4540   43.5837   52.6960 H   0  0  0  0  0  0  0  0  0  0  0  0
    1.4419   41.7040   51.0271 H   0  0  0  0  0  0  0  0  0  0  0  0
    6.1491   40.7800   48.5113 H   0  0  0  0  0  0  0  0  0  0  0  0
    5.6629   44.3120   51.8486 H   0  0  0  0  0  0  0  0  0  0  0  0
    5.8467   44.8292   55.4560 H   0  0  0  0  0  0  0  0  0  0  0  0
    5.7238   43.8694   53.9276 H   0  0  0  0  0  0  0  0  0  0  0  0
    7.9955   45.0679   54.6205 H   0  0  0  0  0  0  0  0  0  0  0  0
    7.3993   45.0188   52.8840 H   0  0  0  0  0  0  0  0  0  0  0  0
    6.7166   46.6305   51.7284 H   0  0  0  0  0  0  0  0  0  0  0  0
    6.5423   48.3562   52.3353 H   0  0  0  0  0  0  0  0  0  0  0  0
    8.3383   47.7982   50.5193 H   0  0  0  0  0  0  0  0  0  0  0  0
    8.7260   48.8824   51.9298 H   0  0  0  0  0  0  0  0  0  0  0  0
   10.5672   47.3739   51.5266 H   0  0  0  0  0  0  0  0  0  0  0  0
    8.8440   45.2070   52.1780 H   0  0  0  0  0  0  0  0  0  0  0  0
   10.1071   45.9034   53.8328 H   0  0  0  0  0  0  0  0  0  0  0  0
   10.7374   47.6193   53.7293 H   0  0  0  0  0  0  0  0  0  0  0  0
    8.8025   47.0941   55.3842 H   0  0  0  0  0  0  0  0  0  0  0  0
    8.7085   48.5525   54.2940 H   0  0  0  0  0  0  0  0  0  0  0  0
    6.3696   47.3258   55.7170 H   0  0  0  0  0  0  0  0  0  0  0  0
    6.2708   48.7084   54.5443 H   0  0  0  0  0  0  0  0  0  0  0  0
    4.1023   47.3488   55.0574 H   0  0  0  0  0  0  0  0  0  0  0  0
    4.5246   47.7380   53.3375 H   0  0  0  0  0  0  0  0  0  0  0  0
  1  2  2  0
  2  3  1  0
  3  4  2  0
  4  5  1  0
  5  6  2  0
  6  7  1  0
  7  8  1  0
  8  9  2  0
  9 10  1  0
 10 11  2  0
  2 12  1  0
 12 13  1  0
 13 14  1  0
 14 15  1  0
 15 16  1  0
 16 17  1  0
 17 18  1  0
 18 19  1  0
 18 20  1  0
 20 21  1  0
 15 22  1  0
 22 23  1  0
 11  3  1  0
 23 12  1  0
 10  6  1  0
 21 15  1  0
  4 24  1  0
  5 25  1  0
  8 26  1  0
 11 27  1  0
 13 28  1  0
 13 29  1  0
 14 30  1  0
 14 31  1  0
 16 32  1  0
 16 33  1  0
 17 34  1  0
 17 35  1  0
 18 36  1  0
 19 37  1  0
 20 38  1  0
 20 39  1  0
 21 40  1  0
 21 41  1  0
 22 42  1  0
 22 43  1  0
 23 44  1  0
 23 45  1  0
M  END
>  <meeko>  (1) 
{"is_sidechain": [false], "free_energy": -9.18, "intermolecular_energy": -9.985, "internal_energy": -0.108}

$$$$
ligand_58_conformer_4_docked
     RDKit          3D

 45 48  0  0  0  0  0  0  0  0999 V2000
    0.7050   42.1700   53.3930 O   0  0  0  0  0  0  0  0  0  0  0  0
    1.1270   43.3490   53.5500 C   0  0  0  0  0  0  0  0  0  0  0  0
    0.4700   44.2190   54.5530 C   0  0  0  0  0  0  0  0  0  0  0  0
   -0.9320   44.4240   54.5030 C   0  0  0  0  0  0  0  0  0  0  0  0
   -1.5730   45.2360   55.4520 C   0  0  0  0  0  0  0  0  0  0  0  0
   -0.7960   45.8220   56.4440 C   0  0  0  0  0  0  0  0  0  0  0  0
   -1.2750   46.8230   57.7010 S   0  0  0  0  0  0  0  0  0  0  0  0
    0.3030   46.9640   58.2970 C   0  0  0  0  0  0  0  0  0  0  0  0
    1.1890   46.2570   57.5520 N   0  0  0  0  0  0  0  0  0  0  0  0
    0.5710   45.6250   56.5220 C   0  0  0  0  0  0  0  0  0  0  0  0
    1.2220   44.8210   55.5870 C   0  0  0  0  0  0  0  0  0  0  0  0
    2.2450   43.8080   52.7660 N   0  0  0  0  0  0  0  0  0  0  0  0
    2.2110   45.1230   52.1150 C   0  0  0  0  0  0  0  0  0  0  0  0
    3.5670   45.8410   52.2430 C   0  0  0  0  0  0  0  0  0  0  0  0
    4.8180   44.8890   52.2580 C   0  0  0  0  0  0  0  0  0  0  0  0
    5.3330   44.6550   53.7270 C   0  0  0  0  0  0  0  0  0  0  0  0
    6.5990   45.4500   54.1050 C   0  0  0  0  0  0  0  0  0  0  0  0
    6.6100   46.8660   53.5090 C   0  0  0  0  0  0  0  0  0  0  0  0
    5.5760   47.6360   54.0670 O   0  0  0  0  0  0  0  0  0  0  0  0
    6.4790   46.8460   51.9670 C   0  0  0  0  0  0  0  0  0  0  0  0
    5.9550   45.5090   51.4010 C   0  0  0  0  0  0  0  0  0  0  0  0
    4.4340   43.5230   51.6190 C   0  0  0  0  0  0  0  0  0  0  0  0
    3.2750   42.8420   52.3650 C   0  0  0  0  0  0  0  0  0  0  0  0
   -1.5242   43.9413   53.7116 H   0  0  0  0  0  0  0  0  0  0  0  0
   -2.6594   45.4036   55.4115 H   0  0  0  0  0  0  0  0  0  0  0  0
    0.5769   47.5574   59.1818 H   0  0  0  0  0  0  0  0  0  0  0  0
    2.3077   44.6573   55.6535 H   0  0  0  0  0  0  0  0  0  0  0  0
    1.9743   44.9900   51.0490 H   0  0  0  0  0  0  0  0  0  0  0  0
    1.4430   45.7369   52.6083 H   0  0  0  0  0  0  0  0  0  0  0  0
    3.6713   46.5298   51.3917 H   0  0  0  0  0  0  0  0  0  0  0  0
    3.5557   46.3530   53.2165 H   0  0  0  0  0  0  0  0  0  0  0  0
    4.5292   44.9422   54.4208 H   0  0  0  0  0  0  0  0  0  0  0  0
    5.6053   43.5913   53.7929 H   0  0  0  0  0  0  0  0  0  0  0  0
    6.6507   45.5291   55.2009 H   0  0  0  0  0  0  0  0  0  0  0  0
    7.4652   44.9101   53.6947 H   0  0  0  0  0  0  0  0  0  0  0  0
    7.5811   47.3193   53.7567 H   0  0  0  0  0  0  0  0  0  0  0  0
    5.9980   48.4460   54.4570 H   0  0  0  0  0  0  0  0  0  0  0  0
    5.7842   47.6447   51.6681 H   0  0  0  0  0  0  0  0  0  0  0  0
    7.4901   46.9911   51.5588 H   0  0  0  0  0  0  0  0  0  0  0  0
    5.5716   45.6851   50.3851 H   0  0  0  0  0  0  0  0  0  0  0  0
    6.7948   44.7986   51.4066 H   0  0  0  0  0  0  0  0  0  0  0  0
    4.1332   43.6919   50.5745 H   0  0  0  0  0  0  0  0  0  0  0  0
    5.3111   42.8619   51.6793 H   0  0  0  0  0  0  0  0  0  0  0  0
    2.8198   42.0890   51.7049 H   0  0  0  0  0  0  0  0  0  0  0  0
    3.6802   42.3754   53.2750 H   0  0  0  0  0  0  0  0  0  0  0  0
  1  2  2  0
  2  3  1  0
  3  4  2  0
  4  5  1  0
  5  6  2  0
  6  7  1  0
  7  8  1  0
  8  9  2  0
  9 10  1  0
 10 11  2  0
  2 12  1  0
 12 13  1  0
 13 14  1  0
 14 15  1  0
 15 16  1  0
 16 17  1  0
 17 18  1  0
 18 19  1  0
 18 20  1  0
 20 21  1  0
 15 22  1  0
 22 23  1  0
 11  3  1  0
 23 12  1  0
 10  6  1  0
 21 15  1  0
  4 24  1  0
  5 25  1  0
  8 26  1  0
 11 27  1  0
 13 28  1  0
 13 29  1  0
 14 30  1  0
 14 31  1  0
 16 32  1  0
 16 33  1  0
 17 34  1  0
 17 35  1  0
 18 36  1  0
 19 37  1  0
 20 38  1  0
 20 39  1  0
 21 40  1  0
 21 41  1  0
 22 42  1  0
 22 43  1  0
 23 44  1  0
 23 45  1  0
M  END
>  <meeko>  (2) 
{"is_sidechain": [false], "free_energy": -8.718, "intermolecular_energy": -9.11, "internal_energy": -0.48}

$$$$
ligand_58_conformer_4_docked
     RDKit          3D

 45 48  0  0  0  0  0  0  0  0999 V2000
    5.4590   46.0950   54.9500 O   0  0  0  0  0  0  0  0  0  0  0  0
    4.8920   45.8380   53.8530 C   0  0  0  0  0  0  0  0  0  0  0  0
    5.7250   45.5080   52.6730 C   0  0  0  0  0  0  0  0  0  0  0  0
    6.8400   46.3190   52.3440 C   0  0  0  0  0  0  0  0  0  0  0  0
    7.6480   46.0150   51.2380 C   0  0  0  0  0  0  0  0  0  0  0  0
    7.3280   44.8920   50.4820 C   0  0  0  0  0  0  0  0  0  0  0  0
    8.1010   44.2820   49.1260 S   0  0  0  0  0  0  0  0  0  0  0  0
    7.0170   42.9890   48.9900 C   0  0  0  0  0  0  0  0  0  0  0  0
    6.0760   43.0160   49.9660 N   0  0  0  0  0  0  0  0  0  0  0  0
    6.2530   44.0780   50.7920 C   0  0  0  0  0  0  0  0  0  0  0  0
    5.4420   44.3670   51.8880 C   0  0  0  0  0  0  0  0  0  0  0  0
    3.4530   45.8530   53.7830 N   0  0  0  0  0  0  0  0  0  0  0  0
    2.7660   46.5260   52.6740 C   0  0  0  0  0  0  0  0  0  0  0  0
    1.5680   45.6970   52.1760 C   0  0  0  0  0  0  0  0  0  0  0  0
    0.8450   44.8520   53.2880 C   0  0  0  0  0  0  0  0  0  0  0  0
    1.3060   43.3480   53.2460 C   0  0  0  0  0  0  0  0  0  0  0  0
    0.2950   42.3780   52.6010 C   0  0  0  0  0  0  0  0  0  0  0  0
   -0.4240   42.9900   51.3890 C   0  0  0  0  0  0  0  0  0  0  0  0
    0.4900   43.2290   50.3510 O   0  0  0  0  0  0  0  0  0  0  0  0
   -1.1590   44.3010   51.7550 C   0  0  0  0  0  0  0  0  0  0  0  0
   -0.6930   44.9310   53.0850 C   0  0  0  0  0  0  0  0  0  0  0  0
    1.1690   45.4550   54.6860 C   0  0  0  0  0  0  0  0  0  0  0  0
    2.6800   45.4720   54.9710 C   0  0  0  0  0  0  0  0  0  0  0  0
    7.0746   47.1973   52.9633 H   0  0  0  0  0  0  0  0  0  0  0  0
    8.5098   46.6465   50.9762 H   0  0  0  0  0  0  0  0  0  0  0  0
    7.0695   42.2201   48.2051 H   0  0  0  0  0  0  0  0  0  0  0  0
    4.5922   43.7153   52.1391 H   0  0  0  0  0  0  0  0  0  0  0  0
    2.4056   47.5068   53.0176 H   0  0  0  0  0  0  0  0  0  0  0  0
    3.4776   46.6434   51.8434 H   0  0  0  0  0  0  0  0  0  0  0  0
    0.8322   46.3874   51.7378 H   0  0  0  0  0  0  0  0  0  0  0  0
    1.9704   44.9751   51.4501 H   0  0  0  0  0  0  0  0  0  0  0  0
    2.2443   43.2938   52.6745 H   0  0  0  0  0  0  0  0  0  0  0  0
    1.4156   43.0290   54.2930 H   0  0  0  0  0  0  0  0  0  0  0  0
    0.8328   41.4763   52.2727 H   0  0  0  0  0  0  0  0  0  0  0  0
   -0.4690   42.1436   53.3569 H   0  0  0  0  0  0  0  0  0  0  0  0
   -1.1791   42.2637   51.0538 H   0  0  0  0  0  0  0  0  0  0  0  0
    1.3990   43.1800   50.7490 H   0  0  0  0  0  0  0  0  0  0  0  0
   -0.9891   45.0297   50.9487 H   0  0  0  0  0  0  0  0  0  0  0  0
   -2.2220   44.0465   51.8783 H   0  0  0  0  0  0  0  0  0  0  0  0
   -0.9942   45.9889   53.0963 H   0  0  0  0  0  0  0  0  0  0  0  0
   -1.1622   44.3618   53.9009 H   0  0  0  0  0  0  0  0  0  0  0  0
    0.7889   46.4865   54.7244 H   0  0  0  0  0  0  0  0  0  0  0  0
    0.6871   44.8243   55.4476 H   0  0  0  0  0  0  0  0  0  0  0  0
    2.8829   46.1948   55.7750 H   0  0  0  0  0  0  0  0  0  0  0  0
    2.9843   44.4571   55.2667 H   0  0  0  0  0  0  0  0  0  0  0  0
  1  2  2  0
  2  3  1  0
  3  4  2  0
  4  5  1  0
  5  6  2  0
  6  7  1  0
  7  8  1  0
  8  9  2  0
  9 10  1  0
 10 11  2  0
  2 12  1  0
 12 13  1  0
 13 14  1  0
 14 15  1  0
 15 16  1  0
 16 17  1  0
 17 18  1  0
 18 19  1  0
 18 20  1  0
 20 21  1  0
 15 22  1  0
 22 23  1  0
 11  3  1  0
 23 12  1  0
 10  6  1  0
 21 15  1  0
  4 24  1  0
  5 25  1  0
  8 26  1  0
 11 27  1  0
 13 28  1  0
 13 29  1  0
 14 30  1  0
 14 31  1  0
 16 32  1  0
 16 33  1  0
 17 34  1  0
 17 35  1  0
 18 36  1  0
 19 37  1  0
 20 38  1  0
 20 39  1  0
 21 40  1  0
 21 41  1  0
 22 42  1  0
 22 43  1  0
 23 44  1  0
 23 45  1  0
M  END
>  <meeko>  (3) 
{"is_sidechain": [false], "free_energy": -8.533, "intermolecular_energy": -8.943, "internal_energy": -0.446}

$$$$
ligand_58_conformer_4_docked
     RDKit          3D

 45 48  0  0  0  0  0  0  0  0999 V2000
    2.3320   42.2970   50.9370 O   0  0  0  0  0  0  0  0  0  0  0  0
    2.5020   43.3780   51.5650 C   0  0  0  0  0  0  0  0  0  0  0  0
    1.5300   43.7590   52.6160 C   0  0  0  0  0  0  0  0  0  0  0  0
    0.1410   43.5930   52.3900 C   0  0  0  0  0  0  0  0  0  0  0  0
   -0.7940   43.9370   53.3790 C   0  0  0  0  0  0  0  0  0  0  0  0
   -0.3170   44.4350   54.5860 C   0  0  0  0  0  0  0  0  0  0  0  0
   -1.1810   44.9200   55.9380 S   0  0  0  0  0  0  0  0  0  0  0  0
    0.2260   45.3160   56.7930 C   0  0  0  0  0  0  0  0  0  0  0  0
    1.3430   45.0820   56.0630 N   0  0  0  0  0  0  0  0  0  0  0  0
    1.0350   44.5930   54.8350 C   0  0  0  0  0  0  0  0  0  0  0  0
    1.9750   44.2550   53.8630 C   0  0  0  0  0  0  0  0  0  0  0  0
    3.6460   44.1990   51.2580 N   0  0  0  0  0  0  0  0  0  0  0  0
    3.4990   45.6490   51.0840 C   0  0  0  0  0  0  0  0  0  0  0  0
    4.6600   46.4090   51.7520 C   0  0  0  0  0  0  0  0  0  0  0  0
    6.0360   45.6480   51.7440 C   0  0  0  0  0  0  0  0  0  0  0  0
    6.3080   44.9570   53.1320 C   0  0  0  0  0  0  0  0  0  0  0  0
    7.3220   45.6890   54.0330 C   0  0  0  0  0  0  0  0  0  0  0  0
    7.1910   47.2180   53.9540 C   0  0  0  0  0  0  0  0  0  0  0  0
    5.9540   47.6270   54.4770 O   0  0  0  0  0  0  0  0  0  0  0  0
    7.3480   47.7380   52.5050 C   0  0  0  0  0  0  0  0  0  0  0  0
    7.1820   46.6470   51.4270 C   0  0  0  0  0  0  0  0  0  0  0  0
    6.0220   44.5700   50.6220 C   0  0  0  0  0  0  0  0  0  0  0  0
    4.8850   43.5520   50.8120 C   0  0  0  0  0  0  0  0  0  0  0  0
   -0.2088   43.1898   51.4282 H   0  0  0  0  0  0  0  0  0  0  0  0
   -1.8732   43.8159   53.2039 H   0  0  0  0  0  0  0  0  0  0  0  0
    0.2323   45.7153   57.8180 H   0  0  0  0  0  0  0  0  0  0  0  0
    3.0501   44.3727   54.0636 H   0  0  0  0  0  0  0  0  0  0  0  0
    3.4883   45.8824   50.0091 H   0  0  0  0  0  0  0  0  0  0  0  0
    2.5575   45.9637   51.5578 H   0  0  0  0  0  0  0  0  0  0  0  0
    4.7937   47.3639   51.2226 H   0  0  0  0  0  0  0  0  0  0  0  0
    4.3812   46.5346   52.8086 H   0  0  0  0  0  0  0  0  0  0  0  0
    5.3533   44.8921   53.6745 H   0  0  0  0  0  0  0  0  0  0  0  0
    6.7481   43.9744   52.9068 H   0  0  0  0  0  0  0  0  0  0  0  0
    7.1579   45.3752   55.0744 H   0  0  0  0  0  0  0  0  0  0  0  0
    8.3301   45.4236   53.6819 H   0  0  0  0  0  0  0  0  0  0  0  0
    8.0053   47.6491   54.5549 H   0  0  0  0  0  0  0  0  0  0  0  0
    6.1480   48.2270   55.2440 H   0  0  0  0  0  0  0  0  0  0  0  0
    6.5883   48.5144   52.3316 H   0  0  0  0  0  0  0  0  0  0  0  0
    8.3744   48.1229   52.4138 H   0  0  0  0  0  0  0  0  0  0  0  0
    6.9652   47.1350   50.4653 H   0  0  0  0  0  0  0  0  0  0  0  0
    8.1192   46.0721   51.3946 H   0  0  0  0  0  0  0  0  0  0  0  0
    5.8916   45.0703   49.6511 H   0  0  0  0  0  0  0  0  0  0  0  0
    6.9761   44.0242   50.6648 H   0  0  0  0  0  0  0  0  0  0  0  0
    4.6973   43.0444   49.8543 H   0  0  0  0  0  0  0  0  0  0  0  0
    5.1940   42.8333   51.5853 H   0  0  0  0  0  0  0  0  0  0  0  0
  1  2  2  0
  2  3  1  0
  3  4  2  0
  4  5  1  0
  5  6  2  0
  6  7  1  0
  7  8  1  0
  8  9  2  0
  9 10  1  0
 10 11  2  0
  2 12  1  0
 12 13  1  0
 13 14  1  0
 14 15  1  0
 15 16  1  0
 16 17  1  0
 17 18  1  0
 18 19  1  0
 18 20  1  0
 20 21  1  0
 15 22  1  0
 22 23  1  0
 11  3  1  0
 23 12  1  0
 10  6  1  0
 21 15  1  0
  4 24  1  0
  5 25  1  0
  8 26  1  0
 11 27  1  0
 13 28  1  0
 13 29  1  0
 14 30  1  0
 14 31  1  0
 16 32  1  0
 16 33  1  0
 17 34  1  0
 17 35  1  0
 18 36  1  0
 19 37  1  0
 20 38  1  0
 20 39  1  0
 21 40  1  0
 21 41  1  0
 22 42  1  0
 22 43  1  0
 23 44  1  0
 23 45  1  0
M  END
>  <meeko>  (4) 
{"is_sidechain": [false], "free_energy": -8.498, "intermolecular_energy": -8.933, "internal_energy": -0.417}

$$$$
ligand_58_conformer_4_docked
     RDKit          3D

 45 48  0  0  0  0  0  0  0  0999 V2000
    8.5460   43.8870   49.2200 O   0  0  0  0  0  0  0  0  0  0  0  0
    7.3890   43.9360   49.7210 C   0  0  0  0  0  0  0  0  0  0  0  0
    6.4120   42.8750   49.3790 C   0  0  0  0  0  0  0  0  0  0  0  0
    5.7270   42.1850   50.4100 C   0  0  0  0  0  0  0  0  0  0  0  0
    4.7900   41.1860   50.1050 C   0  0  0  0  0  0  0  0  0  0  0  0
    4.5470   40.9030   48.7660 C   0  0  0  0  0  0  0  0  0  0  0  0
    3.4920   39.7810   48.1030 S   0  0  0  0  0  0  0  0  0  0  0  0
    3.9100   40.2050   46.5180 C   0  0  0  0  0  0  0  0  0  0  0  0
    4.8410   41.1910   46.4880 N   0  0  0  0  0  0  0  0  0  0  0  0
    5.1920   41.5740   47.7420 C   0  0  0  0  0  0  0  0  0  0  0  0
    6.1260   42.5680   48.0300 C   0  0  0  0  0  0  0  0  0  0  0  0
    7.0570   45.0070   50.6260 N   0  0  0  0  0  0  0  0  0  0  0  0
    5.7900   45.7350   50.4890 C   0  0  0  0  0  0  0  0  0  0  0  0
    5.1540   46.0060   51.8650 C   0  0  0  0  0  0  0  0  0  0  0  0
    6.1820   46.2240   53.0340 C   0  0  0  0  0  0  0  0  0  0  0  0
    6.3510   44.9150   53.8920 C   0  0  0  0  0  0  0  0  0  0  0  0
    5.6160   44.9290   55.2470 C   0  0  0  0  0  0  0  0  0  0  0  0
    4.2460   45.6220   55.1730 C   0  0  0  0  0  0  0  0  0  0  0  0
    3.3750   44.8900   54.3500 O   0  0  0  0  0  0  0  0  0  0  0  0
    4.3610   47.0760   54.6560 C   0  0  0  0  0  0  0  0  0  0  0  0
    5.6960   47.3840   53.9460 C   0  0  0  0  0  0  0  0  0  0  0  0
    7.5600   46.6350   52.4390 C   0  0  0  0  0  0  0  0  0  0  0  0
    8.1130   45.5720   51.4750 C   0  0  0  0  0  0  0  0  0  0  0  0
    5.9322   42.4354   51.4613 H   0  0  0  0  0  0  0  0  0  0  0  0
    4.2628   40.6423   50.9028 H   0  0  0  0  0  0  0  0  0  0  0  0
    3.4786   39.7372   45.6207 H   0  0  0  0  0  0  0  0  0  0  0  0
    6.6342   43.1068   47.2167 H   0  0  0  0  0  0  0  0  0  0  0  0
    5.9797   46.6946   49.9858 H   0  0  0  0  0  0  0  0  0  0  0  0
    5.0956   45.1192   49.8986 H   0  0  0  0  0  0  0  0  0  0  0  0
    4.5323   46.9098   51.7828 H   0  0  0  0  0  0  0  0  0  0  0  0
    4.5777   45.1053   52.1229 H   0  0  0  0  0  0  0  0  0  0  0  0
    5.9672   44.0686   53.3036 H   0  0  0  0  0  0  0  0  0  0  0  0
    7.4234   44.8333   54.1230 H   0  0  0  0  0  0  0  0  0  0  0  0
    5.4673   43.8903   55.5772 H   0  0  0  0  0  0  0  0  0  0  0  0
    6.2371   45.4968   55.9554 H   0  0  0  0  0  0  0  0  0  0  0  0
    3.8412   45.6601   56.1951 H   0  0  0  0  0  0  0  0  0  0  0  0
    3.0920   44.0910   54.8680 H   0  0  0  0  0  0  0  0  0  0  0  0
    3.5411   47.2566   53.9452 H   0  0  0  0  0  0  0  0  0  0  0  0
    4.3091   47.7329   55.5368 H   0  0  0  0  0  0  0  0  0  0  0  0
    5.5643   48.2841   53.3276 H   0  0  0  0  0  0  0  0  0  0  0  0
    6.4573   47.5290   54.7266 H   0  0  0  0  0  0  0  0  0  0  0  0
    7.4423   47.5825   51.8928 H   0  0  0  0  0  0  0  0  0  0  0  0
    8.2711   46.7405   53.2716 H   0  0  0  0  0  0  0  0  0  0  0  0
    8.8766   46.0356   50.8331 H   0  0  0  0  0  0  0  0  0  0  0  0
    8.5441   44.7566   52.0744 H   0  0  0  0  0  0  0  0  0  0  0  0
  1  2  2  0
  2  3  1  0
  3  4  2  0
  4  5  1  0
  5  6  2  0
  6  7  1  0
  7  8  1  0
  8  9  2  0
  9 10  1  0
 10 11  2  0
  2 12  1  0
 12 13  1  0
 13 14  1  0
 14 15  1  0
 15 16  1  0
 16 17  1  0
 17 18  1  0
 18 19  1  0
 18 20  1  0
 20 21  1  0
 15 22  1  0
 22 23  1  0
 11  3  1  0
 23 12  1  0
 10  6  1  0
 21 15  1  0
  4 24  1  0
  5 25  1  0
  8 26  1  0
 11 27  1  0
 13 28  1  0
 13 29  1  0
 14 30  1  0
 14 31  1  0
 16 32  1  0
 16 33  1  0
 17 34  1  0
 17 35  1  0
 18 36  1  0
 19 37  1  0
 20 38  1  0
 20 39  1  0
 21 40  1  0
 21 41  1  0
 22 42  1  0
 22 43  1  0
 23 44  1  0
 23 45  1  0
M  END
>  <meeko>  (5) 
{"is_sidechain": [false], "free_energy": -8.453, "intermolecular_energy": -8.896, "internal_energy": -0.406}

$$$$
