ligand_83_conformer_5_docked
     RDKit          3D

 45 48  0  0  0  0  0  0  0  0999 V2000
    6.4870   43.3530   49.7920 C   0  0  0  0  0  0  0  0  0  0  0  0
    6.2180   44.2880   50.9820 C   0  0  2  0  0  0  0  0  0  0  0  0
    4.6960   44.4370   51.1780 C   0  0  0  0  0  0  0  0  0  0  0  0
    4.3950   45.3690   52.2670 N   0  0  0  0  0  0  0  0  0  0  0  0
    4.2120   44.8610   53.5990 C   0  0  0  0  0  0  0  0  0  0  0  0
    5.1840   44.3260   54.2010 O   0  0  0  0  0  0  0  0  0  0  0  0
    2.9010   44.9310   54.2700 C   0  0  0  0  0  0  0  0  0  0  0  0
    1.6550   44.9830   53.6090 C   0  0  0  0  0  0  0  0  0  0  0  0
    0.7710   44.9930   54.6550 C   0  0  0  0  0  0  0  0  0  0  0  0
   -0.5220   45.0230   54.8330 O   0  0  0  0  0  0  0  0  0  0  0  0
   -0.6880   44.9950   56.1550 C   0  0  0  0  0  0  0  0  0  0  0  0
   -2.3960   45.0190   57.0030 Br  0  0  0  0  0  0  0  0  0  0  0  0
    0.5430   44.9450   56.8350 C   0  0  0  0  0  0  0  0  0  0  0  0
    1.4270   44.9490   55.7910 C   0  0  0  0  0  0  0  0  0  0  0  0
    2.7520   44.9010   55.6270 N   0  0  0  0  0  0  0  0  0  0  0  0
    4.6340   46.8010   52.0620 C   0  0  0  0  0  0  0  0  0  0  0  0
    6.0290   47.1860   52.5890 C   0  0  0  0  0  0  0  0  0  0  0  0
    7.1690   46.4180   52.0080 N   0  0  0  0  0  0  0  0  0  0  0  0
    8.4870   47.1120   51.9530 C   0  0  0  0  0  0  0  0  0  0  0  0
    9.6800   46.1800   51.7440 C   0  0  0  0  0  0  0  0  0  0  0  0
   10.2620   46.6410   53.0780 C   0  0  0  0  0  0  0  0  0  0  0  0
    9.0700   47.5680   53.2920 C   0  0  0  0  0  0  0  0  0  0  0  0
    6.9170   45.6680   50.7550 C   0  0  0  0  0  0  0  0  0  0  0  0
    6.7732   42.3584   50.1646 H   0  0  0  0  0  0  0  0  0  0  0  0
    5.5770   43.2674   49.1799 H   0  0  0  0  0  0  0  0  0  0  0  0
    7.3033   43.7641   49.1799 H   0  0  0  0  0  0  0  0  0  0  0  0
    6.6417   43.8575   51.9013 H   0  0  0  0  0  0  0  0  0  0  0  0
    4.2489   44.8154   50.2469 H   0  0  0  0  0  0  0  0  0  0  0  0
    4.2780   43.4523   51.4343 H   0  0  0  0  0  0  0  0  0  0  0  0
    1.4470   45.0089   52.5292 H   0  0  0  0  0  0  0  0  0  0  0  0
    0.7413   44.9116   57.9165 H   0  0  0  0  0  0  0  0  0  0  0  0
    3.4910   44.8490   56.3650 H   0  0  0  0  0  0  0  0  0  0  0  0
    4.5753   47.0294   50.9876 H   0  0  0  0  0  0  0  0  0  0  0  0
    3.8716   47.3750   52.6091 H   0  0  0  0  0  0  0  0  0  0  0  0
    6.1917   48.2517   52.3704 H   0  0  0  0  0  0  0  0  0  0  0  0
    6.0220   46.9501   53.6634 H   0  0  0  0  0  0  0  0  0  0  0  0
    8.2175   47.8671   51.1999 H   0  0  0  0  0  0  0  0  0  0  0  0
    9.4173   45.1123   51.7121 H   0  0  0  0  0  0  0  0  0  0  0  0
   10.2789   46.2352   50.8230 H   0  0  0  0  0  0  0  0  0  0  0  0
   10.3474   45.8416   53.8288 H   0  0  0  0  0  0  0  0  0  0  0  0
   11.2866   47.0383   53.1261 H   0  0  0  0  0  0  0  0  0  0  0  0
    8.4505   47.3112   54.1639 H   0  0  0  0  0  0  0  0  0  0  0  0
    9.2227   48.6371   53.5011 H   0  0  0  0  0  0  0  0  0  0  0  0
    6.2743   46.2809   50.1060 H   0  0  0  0  0  0  0  0  0  0  0  0
    7.8968   45.4625   50.2992 H   0  0  0  0  0  0  0  0  0  0  0  0
  1  2  1  0
  2  3  1  0
  3  4  1  0
  4  5  1  0
  5  6  2  0
  5  7  1  0
  7  8  2  0
  8  9  1  0
  9 10  1  0
 10 11  1  0
 11 12  1  0
 11 13  2  0
 13 14  1  0
 14 15  1  0
  4 16  1  0
 16 17  1  0
 17 18  1  0
 18 19  1  0
 19 20  1  0
 20 21  1  0
 21 22  1  0
 18 23  1  0
 23  2  1  0
 15  7  1  0
 22 19  1  0
 14  9  2  0
  1 24  1  0
  1 25  1  0
  1 26  1  0
  2 27  1  1
  3 28  1  0
  3 29  1  0
  8 30  1  0
 13 31  1  0
 15 32  1  0
 16 33  1  0
 16 34  1  0
 17 35  1  0
 17 36  1  0
 19 37  1  0
 20 38  1  0
 20 39  1  0
 21 40  1  0
 21 41  1  0
 22 42  1  0
 22 43  1  0
 23 44  1  0
 23 45  1  0
M  END
>  <meeko>  (1) 
{"is_sidechain": [false], "free_energy": -6.684, "intermolecular_energy": -10.201, "internal_energy": -0.001}

$$$$
ligand_83_conformer_5_docked
     RDKit          3D

 45 48  0  0  0  0  0  0  0  0999 V2000
    4.1760   46.5590   54.7630 C   0  0  0  0  0  0  0  0  0  0  0  0
    4.9090   46.1520   53.4750 C   0  0  2  0  0  0  0  0  0  0  0  0
    5.0480   44.6170   53.4310 C   0  0  0  0  0  0  0  0  0  0  0  0
    4.9400   44.1170   52.0590 N   0  0  0  0  0  0  0  0  0  0  0  0
    3.9670   43.1040   51.7530 C   0  0  0  0  0  0  0  0  0  0  0  0
    4.3290   42.0510   51.1620 O   0  0  0  0  0  0  0  0  0  0  0  0
    2.5440   43.2840   52.0960 C   0  0  0  0  0  0  0  0  0  0  0  0
    1.6620   44.1780   51.4520 C   0  0  0  0  0  0  0  0  0  0  0  0
    0.4790   43.9360   52.0990 C   0  0  0  0  0  0  0  0  0  0  0  0
   -0.7550   44.3580   52.0550 O   0  0  0  0  0  0  0  0  0  0  0  0
   -1.3930   43.6550   52.9890 C   0  0  0  0  0  0  0  0  0  0  0  0
   -3.2510   43.8540   53.3740 Br  0  0  0  0  0  0  0  0  0  0  0  0
   -0.5320   42.7570   53.6460 C   0  0  0  0  0  0  0  0  0  0  0  0
    0.6540   43.0080   53.0100 C   0  0  0  0  0  0  0  0  0  0  0  0
    1.9090   42.5530   53.0580 N   0  0  0  0  0  0  0  0  0  0  0  0
    5.5540   44.8870   50.9730 C   0  0  0  0  0  0  0  0  0  0  0  0
    6.9420   45.3970   51.4040 C   0  0  0  0  0  0  0  0  0  0  0  0
    6.9560   46.7310   52.0730 N   0  0  0  0  0  0  0  0  0  0  0  0
    8.2490   47.4730   52.0630 C   0  0  0  0  0  0  0  0  0  0  0  0
    9.4770   46.5940   51.8310 C   0  0  0  0  0  0  0  0  0  0  0  0
   10.0270   47.0190   53.1900 C   0  0  0  0  0  0  0  0  0  0  0  0
    8.7990   47.8930   53.4280 C   0  0  0  0  0  0  0  0  0  0  0  0
    6.3000   46.8350   53.3980 C   0  0  0  0  0  0  0  0  0  0  0  0
    4.7610   46.2342   55.6361 H   0  0  0  0  0  0  0  0  0  0  0  0
    4.0572   47.6523   54.7874 H   0  0  0  0  0  0  0  0  0  0  0  0
    3.1852   46.0818   54.7874 H   0  0  0  0  0  0  0  0  0  0  0  0
    4.3250   46.4848   52.6043 H   0  0  0  0  0  0  0  0  0  0  0  0
    6.0286   44.3332   53.8406 H   0  0  0  0  0  0  0  0  0  0  0  0
    4.2369   44.1755   54.0286 H   0  0  0  0  0  0  0  0  0  0  0  0
    1.8711   44.8879   50.6382 H   0  0  0  0  0  0  0  0  0  0  0  0
   -0.7527   42.0442   54.4542 H   0  0  0  0  0  0  0  0  0  0  0  0
    2.3020   41.8110   53.6820 H   0  0  0  0  0  0  0  0  0  0  0  0
    5.6618   44.2440   50.0870 H   0  0  0  0  0  0  0  0  0  0  0  0
    4.9122   45.7481   50.7350 H   0  0  0  0  0  0  0  0  0  0  0  0
    7.3712   44.6631   52.1020 H   0  0  0  0  0  0  0  0  0  0  0  0
    7.5213   45.5176   50.4767 H   0  0  0  0  0  0  0  0  0  0  0  0
    7.9617   48.2486   51.3377 H   0  0  0  0  0  0  0  0  0  0  0  0
    9.2535   45.5199   51.7515 H   0  0  0  0  0  0  0  0  0  0  0  0
   10.0838   46.7092   50.9208 H   0  0  0  0  0  0  0  0  0  0  0  0
   10.1334   46.1923   53.9078 H   0  0  0  0  0  0  0  0  0  0  0  0
   11.0358   47.4507   53.2673 H   0  0  0  0  0  0  0  0  0  0  0  0
    8.1793   47.5771   54.2802 H   0  0  0  0  0  0  0  0  0  0  0  0
    8.9097   48.9570   53.6842 H   0  0  0  0  0  0  0  0  0  0  0  0
    6.9564   46.3658   54.1456 H   0  0  0  0  0  0  0  0  0  0  0  0
    6.1367   47.9064   53.5863 H   0  0  0  0  0  0  0  0  0  0  0  0
  1  2  1  0
  2  3  1  0
  3  4  1  0
  4  5  1  0
  5  6  2  0
  5  7  1  0
  7  8  2  0
  8  9  1  0
  9 10  1  0
 10 11  1  0
 11 12  1  0
 11 13  2  0
 13 14  1  0
 14 15  1  0
  4 16  1  0
 16 17  1  0
 17 18  1  0
 18 19  1  0
 19 20  1  0
 20 21  1  0
 21 22  1  0
 18 23  1  0
 23  2  1  0
 15  7  1  0
 22 19  1  0
 14  9  2  0
  1 24  1  0
  1 25  1  0
  1 26  1  0
  2 27  1  6
  3 28  1  0
  3 29  1  0
  8 30  1  0
 13 31  1  0
 15 32  1  0
 16 33  1  0
 16 34  1  0
 17 35  1  0
 17 36  1  0
 19 37  1  0
 20 38  1  0
 20 39  1  0
 21 40  1  0
 21 41  1  0
 22 42  1  0
 22 43  1  0
 23 44  1  0
 23 45  1  0
M  END
>  <meeko>  (2) 
{"is_sidechain": [false], "free_energy": -6.564, "intermolecular_energy": -10.002, "internal_energy": -0.018}

$$$$
ligand_83_conformer_5_docked
     RDKit          3D

 45 48  0  0  0  0  0  0  0  0999 V2000
    5.1950   45.1140   55.8730 C   0  0  0  0  0  0  0  0  0  0  0  0
    5.3030   45.7950   54.4990 C   0  0  2  0  0  0  0  0  0  0  0  0
    4.7350   44.8550   53.4180 C   0  0  0  0  0  0  0  0  0  0  0  0
    4.2220   45.6150   52.2760 N   0  0  0  0  0  0  0  0  0  0  0  0
    2.9470   46.2710   52.3820 C   0  0  0  0  0  0  0  0  0  0  0  0
    2.9000   47.5000   52.6640 O   0  0  0  0  0  0  0  0  0  0  0  0
    1.6880   45.5290   52.1900 C   0  0  0  0  0  0  0  0  0  0  0  0
    1.4700   44.5460   51.2010 C   0  0  0  0  0  0  0  0  0  0  0  0
    0.1880   44.1420   51.4690 C   0  0  0  0  0  0  0  0  0  0  0  0
   -0.6760   43.2840   51.0010 O   0  0  0  0  0  0  0  0  0  0  0  0
   -1.7500   43.4190   51.7780 C   0  0  0  0  0  0  0  0  0  0  0  0
   -3.3480   42.4010   51.5560 Br  0  0  0  0  0  0  0  0  0  0  0  0
   -1.5560   44.3960   52.7710 C   0  0  0  0  0  0  0  0  0  0  0  0
   -0.2810   44.8110   52.4960 C   0  0  0  0  0  0  0  0  0  0  0  0
    0.5980   45.6820   52.9980 N   0  0  0  0  0  0  0  0  0  0  0  0
    5.1450   45.9910   51.2010 C   0  0  0  0  0  0  0  0  0  0  0  0
    6.6010   45.8650   51.6850 C   0  0  0  0  0  0  0  0  0  0  0  0
    6.9710   46.7330   52.8410 N   0  0  0  0  0  0  0  0  0  0  0  0
    8.2680   47.4610   52.7470 C   0  0  0  0  0  0  0  0  0  0  0  0
    9.0920   47.1200   51.5050 C   0  0  0  0  0  0  0  0  0  0  0  0
   10.2200   46.6180   52.4030 C   0  0  0  0  0  0  0  0  0  0  0  0
    9.3980   46.9520   53.6440 C   0  0  0  0  0  0  0  0  0  0  0  0
    6.7800   46.1740   54.2000 C   0  0  0  0  0  0  0  0  0  0  0  0
    5.3144   45.8671   56.6659 H   0  0  0  0  0  0  0  0  0  0  0  0
    4.2096   44.6345   55.9681 H   0  0  0  0  0  0  0  0  0  0  0  0
    5.9837   44.3531   55.9681 H   0  0  0  0  0  0  0  0  0  0  0  0
    4.7150   46.7247   54.4991 H   0  0  0  0  0  0  0  0  0  0  0  0
    5.5329   44.1814   53.0722 H   0  0  0  0  0  0  0  0  0  0  0  0
    3.9061   44.2793   53.8556 H   0  0  0  0  0  0  0  0  0  0  0  0
    2.1546   44.1938   50.4153 H   0  0  0  0  0  0  0  0  0  0  0  0
   -2.2449   44.7358   53.5583 H   0  0  0  0  0  0  0  0  0  0  0  0
    0.4750   46.3220   53.8160 H   0  0  0  0  0  0  0  0  0  0  0  0
    4.9895   45.3259   50.3388 H   0  0  0  0  0  0  0  0  0  0  0  0
    4.9518   47.0338   50.9092 H   0  0  0  0  0  0  0  0  0  0  0  0
    6.7712   44.8187   51.9787 H   0  0  0  0  0  0  0  0  0  0  0  0
    7.2284   46.1973   50.8448 H   0  0  0  0  0  0  0  0  0  0  0  0
    7.8725   48.4752   52.9052 H   0  0  0  0  0  0  0  0  0  0  0  0
    8.6448   46.3436   50.8669 H   0  0  0  0  0  0  0  0  0  0  0  0
    9.2859   47.8815   50.7353 H   0  0  0  0  0  0  0  0  0  0  0  0
   10.4403   45.5465   52.2876 H   0  0  0  0  0  0  0  0  0  0  0  0
   11.2374   47.0206   52.2894 H   0  0  0  0  0  0  0  0  0  0  0  0
    9.1291   46.0777   54.2549 H   0  0  0  0  0  0  0  0  0  0  0  0
    9.8149   47.5911   54.4363 H   0  0  0  0  0  0  0  0  0  0  0  0
    7.4003   45.2708   54.2978 H   0  0  0  0  0  0  0  0  0  0  0  0
    7.0719   46.9528   54.9199 H   0  0  0  0  0  0  0  0  0  0  0  0
  1  2  1  0
  2  3  1  0
  3  4  1  0
  4  5  1  0
  5  6  2  0
  5  7  1  0
  7  8  2  0
  8  9  1  0
  9 10  1  0
 10 11  1  0
 11 12  1  0
 11 13  2  0
 13 14  1  0
 14 15  1  0
  4 16  1  0
 16 17  1  0
 17 18  1  0
 18 19  1  0
 19 20  1  0
 20 21  1  0
 21 22  1  0
 18 23  1  0
 23  2  1  0
 15  7  1  0
 22 19  1  0
 14  9  2  0
  1 24  1  0
  1 25  1  0
  1 26  1  0
  2 27  1  1
  3 28  1  0
  3 29  1  0
  8 30  1  0
 13 31  1  0
 15 32  1  0
 16 33  1  0
 16 34  1  0
 17 35  1  0
 17 36  1  0
 19 37  1  0
 20 38  1  0
 20 39  1  0
 21 40  1  0
 21 41  1  0
 22 42  1  0
 22 43  1  0
 23 44  1  0
 23 45  1  0
M  END
>  <meeko>  (3) 
{"is_sidechain": [false], "free_energy": -6.34, "intermolecular_energy": -9.56, "internal_energy": -0.117}

$$$$
ligand_83_conformer_5_docked
     RDKit          3D

 45 48  0  0  0  0  0  0  0  0999 V2000
    4.4140   45.8180   50.8770 C   0  0  0  0  0  0  0  0  0  0  0  0
    5.6230   45.4700   51.7590 C   0  0  2  0  0  0  0  0  0  0  0  0
    5.1270   44.8490   53.0810 C   0  0  0  0  0  0  0  0  0  0  0  0
    4.2900   45.7930   53.8240 N   0  0  0  0  0  0  0  0  0  0  0  0
    3.0100   45.3620   54.3180 C   0  0  0  0  0  0  0  0  0  0  0  0
    2.7980   45.3410   55.5610 O   0  0  0  0  0  0  0  0  0  0  0  0
    1.9460   44.9210   53.3990 C   0  0  0  0  0  0  0  0  0  0  0  0
    1.9020   43.6670   52.7530 C   0  0  0  0  0  0  0  0  0  0  0  0
    0.7210   43.7360   52.0620 C   0  0  0  0  0  0  0  0  0  0  0  0
    0.0160   42.9790   51.2670 O   0  0  0  0  0  0  0  0  0  0  0  0
   -1.0650   43.7000   50.9730 C   0  0  0  0  0  0  0  0  0  0  0  0
   -2.4650   43.0850   49.8330 Br  0  0  0  0  0  0  0  0  0  0  0  0
   -1.0410   44.9560   51.6060 C   0  0  0  0  0  0  0  0  0  0  0  0
    0.1450   44.8940   52.2840 C   0  0  0  0  0  0  0  0  0  0  0  0
    0.8460   45.6770   53.1100 N   0  0  0  0  0  0  0  0  0  0  0  0
    4.8990   47.0170   54.3540 C   0  0  0  0  0  0  0  0  0  0  0  0
    6.4090   46.8070   54.5690 C   0  0  0  0  0  0  0  0  0  0  0  0
    7.2180   46.6390   53.3260 N   0  0  0  0  0  0  0  0  0  0  0  0
    8.5110   47.3780   53.2610 C   0  0  0  0  0  0  0  0  0  0  0  0
    9.7420   46.4820   53.1370 C   0  0  0  0  0  0  0  0  0  0  0  0
   10.2710   47.0430   54.4540 C   0  0  0  0  0  0  0  0  0  0  0  0
    9.0400   47.9350   54.5840 C   0  0  0  0  0  0  0  0  0  0  0  0
    6.5000   46.7200   52.0320 C   0  0  0  0  0  0  0  0  0  0  0  0
    3.5534   46.0657   51.5157 H   0  0  0  0  0  0  0  0  0  0  0  0
    4.6600   46.6818   50.2419 H   0  0  0  0  0  0  0  0  0  0  0  0
    4.1631   44.9556   50.2419 H   0  0  0  0  0  0  0  0  0  0  0  0
    6.2519   44.7407   51.2274 H   0  0  0  0  0  0  0  0  0  0  0  0
    4.5389   43.9470   52.8561 H   0  0  0  0  0  0  0  0  0  0  0  0
    6.0015   44.5957   53.6984 H   0  0  0  0  0  0  0  0  0  0  0  0
    2.6305   42.8438   52.7939 H   0  0  0  0  0  0  0  0  0  0  0  0
   -1.7792   45.7706   51.5662 H   0  0  0  0  0  0  0  0  0  0  0  0
    0.6020   46.6340   53.4520 H   0  0  0  0  0  0  0  0  0  0  0  0
    4.7442   47.8391   53.6397 H   0  0  0  0  0  0  0  0  0  0  0  0
    4.4294   47.2645   55.3174 H   0  0  0  0  0  0  0  0  0  0  0  0
    6.7988   47.6809   55.1115 H   0  0  0  0  0  0  0  0  0  0  0  0
    6.5065   45.8616   55.1227 H   0  0  0  0  0  0  0  0  0  0  0  0
    8.2347   48.0760   52.4570 H   0  0  0  0  0  0  0  0  0  0  0  0
    9.5197   45.4050   53.1630 H   0  0  0  0  0  0  0  0  0  0  0  0
   10.3624   46.5054   52.2290 H   0  0  0  0  0  0  0  0  0  0  0  0
   10.3663   46.2932   55.2532 H   0  0  0  0  0  0  0  0  0  0  0  0
   11.2785   47.4818   54.5024 H   0  0  0  0  0  0  0  0  0  0  0  0
    8.4075   47.7063   55.4544 H   0  0  0  0  0  0  0  0  0  0  0  0
    9.1469   49.0196   54.7328 H   0  0  0  0  0  0  0  0  0  0  0  0
    5.8527   47.6093   52.0430 H   0  0  0  0  0  0  0  0  0  0  0  0
    7.2551   46.7787   51.2343 H   0  0  0  0  0  0  0  0  0  0  0  0
  1  2  1  0
  2  3  1  0
  3  4  1  0
  4  5  1  0
  5  6  2  0
  5  7  1  0
  7  8  2  0
  8  9  1  0
  9 10  1  0
 10 11  1  0
 11 12  1  0
 11 13  2  0
 13 14  1  0
 14 15  1  0
  4 16  1  0
 16 17  1  0
 17 18  1  0
 18 19  1  0
 19 20  1  0
 20 21  1  0
 21 22  1  0
 18 23  1  0
 23  2  1  0
 15  7  1  0
 22 19  1  0
 14  9  2  0
  1 24  1  0
  1 25  1  0
  1 26  1  0
  2 27  1  6
  3 28  1  0
  3 29  1  0
  8 30  1  0
 13 31  1  0
 15 32  1  0
 16 33  1  0
 16 34  1  0
 17 35  1  0
 17 36  1  0
 19 37  1  0
 20 38  1  0
 20 39  1  0
 21 40  1  0
 21 41  1  0
 22 42  1  0
 22 43  1  0
 23 44  1  0
 23 45  1  0
M  END
>  <meeko>  (4) 
{"is_sidechain": [false], "free_energy": -6.317, "intermolecular_energy": -9.735, "internal_energy": 0.094}

$$$$
ligand_83_conformer_5_docked
     RDKit          3D

 45 48  0  0  0  0  0  0  0  0999 V2000
    4.6850   44.3820   50.9470 C   0  0  0  0  0  0  0  0  0  0  0  0
    5.4800   44.5700   52.2490 C   0  0  2  0  0  0  0  0  0  0  0  0
    4.5050   44.5840   53.4430 C   0  0  0  0  0  0  0  0  0  0  0  0
    4.0350   45.9430   53.7230 N   0  0  0  0  0  0  0  0  0  0  0  0
    2.6570   46.2750   53.4810 C   0  0  0  0  0  0  0  0  0  0  0  0
    2.3640   47.0880   52.5620 O   0  0  0  0  0  0  0  0  0  0  0  0
    1.5780   45.7010   54.3050 C   0  0  0  0  0  0  0  0  0  0  0  0
    1.6450   45.4920   55.6990 C   0  0  0  0  0  0  0  0  0  0  0  0
    0.4020   44.9900   55.9800 C   0  0  0  0  0  0  0  0  0  0  0  0
   -0.2660   44.5810   57.0230 O   0  0  0  0  0  0  0  0  0  0  0  0
   -1.4630   44.2340   56.5510 C   0  0  0  0  0  0  0  0  0  0  0  0
   -2.8710   43.5550   57.6430 Br  0  0  0  0  0  0  0  0  0  0  0  0
   -1.5530   44.4320   55.1610 C   0  0  0  0  0  0  0  0  0  0  0  0
   -0.3060   44.9190   54.8770 C   0  0  0  0  0  0  0  0  0  0  0  0
    0.3580   45.3510   53.8010 N   0  0  0  0  0  0  0  0  0  0  0  0
    4.8580   46.8200   54.5600 C   0  0  0  0  0  0  0  0  0  0  0  0
    6.2730   46.2330   54.7130 C   0  0  0  0  0  0  0  0  0  0  0  0
    7.0640   46.1270   53.4510 N   0  0  0  0  0  0  0  0  0  0  0  0
    8.1230   47.1540   53.2340 C   0  0  0  0  0  0  0  0  0  0  0  0
    8.9690   46.9300   51.9820 C   0  0  0  0  0  0  0  0  0  0  0  0
   10.2150   46.8150   52.8550 C   0  0  0  0  0  0  0  0  0  0  0  0
    9.3730   47.0330   54.1090 C   0  0  0  0  0  0  0  0  0  0  0  0
    6.3150   45.8720   52.1980 C   0  0  0  0  0  0  0  0  0  0  0  0
    3.6404   44.1350   51.1876 H   0  0  0  0  0  0  0  0  0  0  0  0
    4.7161   45.3123   50.3608 H   0  0  0  0  0  0  0  0  0  0  0  0
    5.1295   43.5642   50.3608 H   0  0  0  0  0  0  0  0  0  0  0  0
    6.1822   43.7321   52.3704 H   0  0  0  0  0  0  0  0  0  0  0  0
    3.6403   43.9458   53.2085 H   0  0  0  0  0  0  0  0  0  0  0  0
    5.0337   44.2069   54.3308 H   0  0  0  0  0  0  0  0  0  0  0  0
    2.4828   45.6836   56.3856 H   0  0  0  0  0  0  0  0  0  0  0  0
   -2.3994   44.2453   54.4836 H   0  0  0  0  0  0  0  0  0  0  0  0
    0.0170   45.4080   52.8140 H   0  0  0  0  0  0  0  0  0  0  0  0
    4.9250   47.8125   54.0905 H   0  0  0  0  0  0  0  0  0  0  0  0
    4.3952   46.9058   55.5542 H   0  0  0  0  0  0  0  0  0  0  0  0
    6.8322   46.8736   55.4108 H   0  0  0  0  0  0  0  0  0  0  0  0
    6.1356   45.2021   55.0712 H   0  0  0  0  0  0  0  0  0  0  0  0
    7.4817   48.0422   53.3335 H   0  0  0  0  0  0  0  0  0  0  0  0
    8.7205   46.0123   51.4288 H   0  0  0  0  0  0  0  0  0  0  0  0
    8.9344   47.6461   51.1477 H   0  0  0  0  0  0  0  0  0  0  0  0
   10.7032   45.8303   52.8099 H   0  0  0  0  0  0  0  0  0  0  0  0
   11.0882   47.4543   52.6581 H   0  0  0  0  0  0  0  0  0  0  0  0
    9.3598   46.1755   54.7979 H   0  0  0  0  0  0  0  0  0  0  0  0
    9.6326   47.8237   54.8283 H   0  0  0  0  0  0  0  0  0  0  0  0
    5.6354   46.7178   52.0172 H   0  0  0  0  0  0  0  0  0  0  0  0
    7.0528   45.7592   51.3899 H   0  0  0  0  0  0  0  0  0  0  0  0
  1  2  1  0
  2  3  1  0
  3  4  1  0
  4  5  1  0
  5  6  2  0
  5  7  1  0
  7  8  2  0
  8  9  1  0
  9 10  1  0
 10 11  1  0
 11 12  1  0
 11 13  2  0
 13 14  1  0
 14 15  1  0
  4 16  1  0
 16 17  1  0
 17 18  1  0
 18 19  1  0
 19 20  1  0
 20 21  1  0
 21 22  1  0
 18 23  1  0
 23  2  1  0
 15  7  1  0
 22 19  1  0
 14  9  2  0
  1 24  1  0
  1 25  1  0
  1 26  1  0
  2 27  1  1
  3 28  1  0
  3 29  1  0
  8 30  1  0
 13 31  1  0
 15 32  1  0
 16 33  1  0
 16 34  1  0
 17 35  1  0
 17 36  1  0
 19 37  1  0
 20 38  1  0
 20 39  1  0
 21 40  1  0
 21 41  1  0
 22 42  1  0
 22 43  1  0
 23 44  1  0
 23 45  1  0
M  END
>  <meeko>  (5) 
{"is_sidechain": [false], "free_energy": -6.245, "intermolecular_energy": -10.081, "internal_energy": 0.549}

$$$$
