ligand_2_conformer_2_docked
     RDKit          3D

 59 62  0  0  0  0  0  0  0  0999 V2000
   -3.5830   43.9560   54.4290 C   0  0  0  0  0  0  0  0  0  0  0  0
   -2.1360   44.3350   54.3340 C   0  0  0  0  0  0  0  0  0  0  0  0
   -1.2620   44.4290   55.3990 C   0  0  0  0  0  0  0  0  0  0  0  0
   -0.0390   44.6660   54.8020 C   0  0  0  0  0  0  0  0  0  0  0  0
    1.2020   44.8090   55.5050 N   0  0  0  0  0  0  0  0  0  0  0  0
    2.4030   45.3220   54.9080 C   0  0  0  0  0  0  0  0  0  0  0  0
    2.4340   45.5980   53.6760 O   0  0  0  0  0  0  0  0  0  0  0  0
    3.5760   45.5030   55.7130 N   0  0  0  0  0  0  0  0  0  0  0  0
    4.8210   46.0580   55.1680 C   0  0  0  0  0  0  0  0  0  0  0  0
    5.5990   44.9830   54.3990 C   0  0  0  0  0  0  0  0  0  0  0  0
    6.9430   45.5390   53.8740 C   0  0  0  0  0  0  0  0  0  0  0  0
    6.9790   47.0260   53.8190 N   0  0  0  0  0  0  0  0  0  0  0  0
    8.1380   47.5310   53.0280 C   0  0  2  0  0  0  0  0  0  0  0  0
    7.8150   48.8280   52.2590 C   0  0  0  0  0  0  0  0  0  0  0  0
    8.5820   46.4930   52.0120 C   0  0  0  0  0  0  0  0  0  0  0  0
    7.6810   46.0030   51.0470 C   0  0  0  0  0  0  0  0  0  0  0  0
    8.0970   45.0490   50.1110 C   0  0  0  0  0  0  0  0  0  0  0  0
    9.4140   44.5840   50.1240 C   0  0  0  0  0  0  0  0  0  0  0  0
   10.3190   45.0700   51.0740 C   0  0  0  0  0  0  0  0  0  0  0  0
    9.9090   46.0220   52.0130 C   0  0  0  0  0  0  0  0  0  0  0  0
    5.6990   47.5350   53.2680 C   0  0  0  0  0  0  0  0  0  0  0  0
    4.5310   47.2530   54.2340 C   0  0  0  0  0  0  0  0  0  0  0  0
   -0.1670   44.7140   53.4600 N   0  0  0  0  0  0  0  0  0  0  0  0
   -1.4470   44.5270   53.1840 N   0  0  0  0  0  0  0  0  0  0  0  0
   -1.9620   44.4870   51.8460 C   0  0  0  0  0  0  0  0  0  0  0  0
   -1.7540   43.3480   51.0540 C   0  0  0  0  0  0  0  0  0  0  0  0
   -2.2350   43.3070   49.7420 C   0  0  0  0  0  0  0  0  0  0  0  0
   -2.9110   44.4080   49.2080 C   0  0  0  0  0  0  0  0  0  0  0  0
   -3.3730   44.3710   47.9340 F   0  0  0  0  0  0  0  0  0  0  0  0
   -3.1040   45.5550   49.9870 C   0  0  0  0  0  0  0  0  0  0  0  0
   -2.6300   45.5990   51.3020 C   0  0  0  0  0  0  0  0  0  0  0  0
   -2.7790   46.7380   52.0250 F   0  0  0  0  0  0  0  0  0  0  0  0
   -3.8734   43.8799   55.4872 H   0  0  0  0  0  0  0  0  0  0  0  0
   -4.1964   44.7238   53.9347 H   0  0  0  0  0  0  0  0  0  0  0  0
   -3.7412   42.9861   53.9347 H   0  0  0  0  0  0  0  0  0  0  0  0
   -1.4870   44.3367   56.4718 H   0  0  0  0  0  0  0  0  0  0  0  0
    1.2340   44.5110   56.5080 H   0  0  0  0  0  0  0  0  0  0  0  0
    3.5380   45.1900   56.7080 H   0  0  0  0  0  0  0  0  0  0  0  0
    5.4296   46.4093   56.0143 H   0  0  0  0  0  0  0  0  0  0  0  0
    5.7985   44.1345   55.0700 H   0  0  0  0  0  0  0  0  0  0  0  0
    4.9936   44.6609   53.5389 H   0  0  0  0  0  0  0  0  0  0  0  0
    7.7482   45.1938   54.5392 H   0  0  0  0  0  0  0  0  0  0  0  0
    7.0710   45.1699   52.8457 H   0  0  0  0  0  0  0  0  0  0  0  0
    8.9339   47.7384   53.7584 H   0  0  0  0  0  0  0  0  0  0  0  0
    7.6132   49.6383   52.9751 H   0  0  0  0  0  0  0  0  0  0  0  0
    8.6722   49.1025   51.6267 H   0  0  0  0  0  0  0  0  0  0  0  0
    6.9292   48.6684   51.6267 H   0  0  0  0  0  0  0  0  0  0  0  0
    6.6449   46.3719   51.0287 H   0  0  0  0  0  0  0  0  0  0  0  0
    7.3861   44.6652   49.3645 H   0  0  0  0  0  0  0  0  0  0  0  0
    9.7399   43.8353   49.3870 H   0  0  0  0  0  0  0  0  0  0  0  0
   11.3557   44.7024   51.0824 H   0  0  0  0  0  0  0  0  0  0  0  0
   10.6257   46.4041   52.7549 H   0  0  0  0  0  0  0  0  0  0  0  0
    5.7815   48.6205   53.1104 H   0  0  0  0  0  0  0  0  0  0  0  0
    5.4983   47.0217   52.3160 H   0  0  0  0  0  0  0  0  0  0  0  0
    4.3557   48.1483   54.8485 H   0  0  0  0  0  0  0  0  0  0  0  0
    3.6466   47.0021   53.6299 H   0  0  0  0  0  0  0  0  0  0  0  0
   -1.2110   42.4848   51.4664 H   0  0  0  0  0  0  0  0  0  0  0  0
   -2.0813   42.4068   49.1288 H   0  0  0  0  0  0  0  0  0  0  0  0
   -3.6297   46.4237   49.5638 H   0  0  0  0  0  0  0  0  0  0  0  0
  1  2  1  0
  2  3  2  0
  3  4  1  0
  4  5  1  0
  5  6  1  0
  6  7  2  0
  6  8  1  0
  8  9  1  0
  9 10  1  0
 10 11  1  0
 11 12  1  0
 12 13  1  0
 13 14  1  0
 13 15  1  0
 15 16  2  0
 16 17  1  0
 17 18  2  0
 18 19  1  0
 19 20  2  0
 12 21  1  0
 21 22  1  0
  4 23  2  0
 23 24  1  0
 24 25  1  0
 25 26  2  0
 26 27  1  0
 27 28  2  0
 28 29  1  0
 28 30  1  0
 30 31  2  0
 31 32  1  0
 24  2  1  0
 31 25  1  0
 22  9  1  0
 20 15  1  0
  1 33  1  0
  1 34  1  0
  1 35  1  0
  3 36  1  0
  5 37  1  0
  8 38  1  0
  9 39  1  0
 10 40  1  0
 10 41  1  0
 11 42  1  0
 11 43  1  0
 13 44  1  1
 14 45  1  0
 14 46  1  0
 14 47  1  0
 16 48  1  0
 17 49  1  0
 18 50  1  0
 19 51  1  0
 20 52  1  0
 21 53  1  0
 21 54  1  0
 22 55  1  0
 22 56  1  0
 26 57  1  0
 27 58  1  0
 30 59  1  0
M  END
>  <meeko>  (1) 
{"is_sidechain": [false], "free_energy": -8.819, "intermolecular_energy": -11.396, "internal_energy": 0.584}

$$$$
ligand_2_conformer_2_docked
     RDKit          3D

 59 62  0  0  0  0  0  0  0  0999 V2000
    7.8110   45.1640   50.3880 C   0  0  0  0  0  0  0  0  0  0  0  0
    6.7890   44.1100   50.0920 C   0  0  0  0  0  0  0  0  0  0  0  0
    6.9010   43.1370   49.1170 C   0  0  0  0  0  0  0  0  0  0  0  0
    5.7960   42.3360   49.3220 C   0  0  0  0  0  0  0  0  0  0  0  0
    5.4870   41.1570   48.5650 N   0  0  0  0  0  0  0  0  0  0  0  0
    4.1500   40.7420   48.2470 C   0  0  0  0  0  0  0  0  0  0  0  0
    3.1590   41.3740   48.7100 O   0  0  0  0  0  0  0  0  0  0  0  0
    3.9420   39.5910   47.4160 N   0  0  0  0  0  0  0  0  0  0  0  0
    2.6000   39.1400   47.0270 C   0  0  0  0  0  0  0  0  0  0  0  0
    2.2580   39.6210   45.6120 C   0  0  0  0  0  0  0  0  0  0  0  0
    0.8230   39.2070   45.2150 C   0  0  0  0  0  0  0  0  0  0  0  0
    0.2850   38.0940   46.0470 N   0  0  0  0  0  0  0  0  0  0  0  0
   -0.9510   37.5020   45.4600 C   0  0  2  0  0  0  0  0  0  0  0  0
   -1.6800   38.4720   44.5070 C   0  0  0  0  0  0  0  0  0  0  0  0
   -1.9280   37.1130   46.5550 C   0  0  0  0  0  0  0  0  0  0  0  0
   -1.9130   35.8150   47.1010 C   0  0  0  0  0  0  0  0  0  0  0  0
   -2.8130   35.4630   48.1130 C   0  0  0  0  0  0  0  0  0  0  0  0
   -3.7290   36.4020   48.5930 C   0  0  0  0  0  0  0  0  0  0  0  0
   -3.7470   37.6960   48.0620 C   0  0  0  0  0  0  0  0  0  0  0  0
   -2.8510   38.0540   47.0490 C   0  0  0  0  0  0  0  0  0  0  0  0
    1.3320   37.0610   46.2320 C   0  0  0  0  0  0  0  0  0  0  0  0
    2.4960   37.6010   47.0880 C   0  0  0  0  0  0  0  0  0  0  0  0
    5.0610   42.7950   50.3550 N   0  0  0  0  0  0  0  0  0  0  0  0
    5.6630   43.8820   50.8080 N   0  0  0  0  0  0  0  0  0  0  0  0
    5.1790   44.6350   51.9280 C   0  0  0  0  0  0  0  0  0  0  0  0
    5.3970   44.1620   53.2310 C   0  0  0  0  0  0  0  0  0  0  0  0
    4.9120   44.8790   54.3300 C   0  0  0  0  0  0  0  0  0  0  0  0
    4.1940   46.0630   54.1330 C   0  0  0  0  0  0  0  0  0  0  0  0
    3.7200   46.7550   55.1980 F   0  0  0  0  0  0  0  0  0  0  0  0
    3.9570   46.5290   52.8350 C   0  0  0  0  0  0  0  0  0  0  0  0
    4.4450   45.8190   51.7330 C   0  0  0  0  0  0  0  0  0  0  0  0
    4.1600   46.2570   50.4810 F   0  0  0  0  0  0  0  0  0  0  0  0
    7.9185   45.2749   51.4771 H   0  0  0  0  0  0  0  0  0  0  0  0
    8.7774   44.8704   49.9522 H   0  0  0  0  0  0  0  0  0  0  0  0
    7.4878   46.1208   49.9522 H   0  0  0  0  0  0  0  0  0  0  0  0
    7.6871   43.0267   48.3555 H   0  0  0  0  0  0  0  0  0  0  0  0
    6.2830   40.5630   48.2370 H   0  0  0  0  0  0  0  0  0  0  0  0
    4.7810   39.0460   47.1180 H   0  0  0  0  0  0  0  0  0  0  0  0
    1.8820   39.5730   47.7391 H   0  0  0  0  0  0  0  0  0  0  0  0
    2.3384   40.7175   45.5761 H   0  0  0  0  0  0  0  0  0  0  0  0
    2.9630   39.1581   44.9058 H   0  0  0  0  0  0  0  0  0  0  0  0
    0.1628   40.0796   45.3282 H   0  0  0  0  0  0  0  0  0  0  0  0
    0.8600   38.8510   44.1748 H   0  0  0  0  0  0  0  0  0  0  0  0
   -0.6222   36.6204   44.8902 H   0  0  0  0  0  0  0  0  0  0  0  0
   -2.2381   39.2146   45.0961 H   0  0  0  0  0  0  0  0  0  0  0  0
   -0.9428   38.9861   43.8727 H   0  0  0  0  0  0  0  0  0  0  0  0
   -2.3788   37.9069   43.8727 H   0  0  0  0  0  0  0  0  0  0  0  0
   -1.1899   35.0738   46.7299 H   0  0  0  0  0  0  0  0  0  0  0  0
   -2.7991   34.4456   48.5310 H   0  0  0  0  0  0  0  0  0  0  0  0
   -4.4361   36.1239   49.3884 H   0  0  0  0  0  0  0  0  0  0  0  0
   -4.4681   38.4346   48.4422 H   0  0  0  0  0  0  0  0  0  0  0  0
   -2.8678   39.0739   46.6373 H   0  0  0  0  0  0  0  0  0  0  0  0
    0.8908   36.1876   46.7346 H   0  0  0  0  0  0  0  0  0  0  0  0
    1.7249   36.7792   45.2439 H   0  0  0  0  0  0  0  0  0  0  0  0
    2.3372   37.2979   48.1334 H   0  0  0  0  0  0  0  0  0  0  0  0
    3.4315   37.1833   46.6876 H   0  0  0  0  0  0  0  0  0  0  0  0
    5.9508   43.2248   53.3887 H   0  0  0  0  0  0  0  0  0  0  0  0
    5.0956   44.5111   55.3503 H   0  0  0  0  0  0  0  0  0  0  0  0
    3.3854   47.4561   52.6808 H   0  0  0  0  0  0  0  0  0  0  0  0
  1  2  1  0
  2  3  2  0
  3  4  1  0
  4  5  1  0
  5  6  1  0
  6  7  2  0
  6  8  1  0
  8  9  1  0
  9 10  1  0
 10 11  1  0
 11 12  1  0
 12 13  1  0
 13 14  1  0
 13 15  1  0
 15 16  2  0
 16 17  1  0
 17 18  2  0
 18 19  1  0
 19 20  2  0
 12 21  1  0
 21 22  1  0
  4 23  2  0
 23 24  1  0
 24 25  1  0
 25 26  2  0
 26 27  1  0
 27 28  2  0
 28 29  1  0
 28 30  1  0
 30 31  2  0
 31 32  1  0
 24  2  1  0
 31 25  1  0
 22  9  1  0
 20 15  1  0
  1 33  1  0
  1 34  1  0
  1 35  1  0
  3 36  1  0
  5 37  1  0
  8 38  1  0
  9 39  1  0
 10 40  1  0
 10 41  1  0
 11 42  1  0
 11 43  1  0
 13 44  1  6
 14 45  1  0
 14 46  1  0
 14 47  1  0
 16 48  1  0
 17 49  1  0
 18 50  1  0
 19 51  1  0
 20 52  1  0
 21 53  1  0
 21 54  1  0
 22 55  1  0
 22 56  1  0
 26 57  1  0
 27 58  1  0
 30 59  1  0
M  END
>  <meeko>  (2) 
{"is_sidechain": [false], "free_energy": -8.806, "intermolecular_energy": -9.935, "internal_energy": -0.861}

$$$$
ligand_2_conformer_2_docked
     RDKit          3D

 59 62  0  0  0  0  0  0  0  0999 V2000
    4.5650   43.8020   53.0740 C   0  0  0  0  0  0  0  0  0  0  0  0
    5.0970   43.4400   51.7210 C   0  0  0  0  0  0  0  0  0  0  0  0
    4.7000   42.3500   50.9700 C   0  0  0  0  0  0  0  0  0  0  0  0
    5.3590   42.5200   49.7690 C   0  0  0  0  0  0  0  0  0  0  0  0
    5.2400   41.6450   48.6380 N   0  0  0  0  0  0  0  0  0  0  0  0
    4.0940   40.8180   48.3880 C   0  0  0  0  0  0  0  0  0  0  0  0
    3.1500   40.7640   49.2270 O   0  0  0  0  0  0  0  0  0  0  0  0
    4.0310   40.0350   47.1880 N   0  0  0  0  0  0  0  0  0  0  0  0
    2.8690   39.1990   46.8600 C   0  0  0  0  0  0  0  0  0  0  0  0
    2.1180   39.7700   45.6510 C   0  0  0  0  0  0  0  0  0  0  0  0
    0.8560   38.9340   45.3350 C   0  0  0  0  0  0  0  0  0  0  0  0
    0.8950   37.5700   45.9310 N   0  0  0  0  0  0  0  0  0  0  0  0
   -0.1610   36.6810   45.3670 C   0  0  2  0  0  0  0  0  0  0  0  0
   -1.1530   37.4370   44.4610 C   0  0  0  0  0  0  0  0  0  0  0  0
   -0.9610   36.0280   46.4800 C   0  0  0  0  0  0  0  0  0  0  0  0
   -0.4360   34.9320   47.1920 C   0  0  0  0  0  0  0  0  0  0  0  0
   -1.1760   34.3370   48.2200 C   0  0  0  0  0  0  0  0  0  0  0  0
   -2.4390   34.8330   48.5510 C   0  0  0  0  0  0  0  0  0  0  0  0
   -2.9660   35.9260   47.8540 C   0  0  0  0  0  0  0  0  0  0  0  0
   -2.2320   36.5250   46.8250 C   0  0  0  0  0  0  0  0  0  0  0  0
    2.2420   36.9810   45.7410 C   0  0  0  0  0  0  0  0  0  0  0  0
    3.3010   37.7470   46.5610 C   0  0  0  0  0  0  0  0  0  0  0  0
    6.1080   43.6410   49.7920 N   0  0  0  0  0  0  0  0  0  0  0  0
    5.9550   44.1860   50.9870 N   0  0  0  0  0  0  0  0  0  0  0  0
    6.5850   45.4150   51.3730 C   0  0  0  0  0  0  0  0  0  0  0  0
    5.8750   46.3500   52.1410 C   0  0  0  0  0  0  0  0  0  0  0  0
    6.4740   47.5600   52.5060 C   0  0  0  0  0  0  0  0  0  0  0  0
    7.7780   47.8500   52.0930 C   0  0  0  0  0  0  0  0  0  0  0  0
    8.3570   49.0250   52.4420 F   0  0  0  0  0  0  0  0  0  0  0  0
    8.4840   46.9300   51.3090 C   0  0  0  0  0  0  0  0  0  0  0  0
    7.8920   45.7160   50.9470 C   0  0  0  0  0  0  0  0  0  0  0  0
    8.5710   44.8590   50.1430 F   0  0  0  0  0  0  0  0  0  0  0  0
    5.2091   43.3637   53.8505 H   0  0  0  0  0  0  0  0  0  0  0  0
    4.5529   44.8966   53.1824 H   0  0  0  0  0  0  0  0  0  0  0  0
    3.5424   43.4115   53.1824 H   0  0  0  0  0  0  0  0  0  0  0  0
    4.0184   41.5372   51.2611 H   0  0  0  0  0  0  0  0  0  0  0  0
    6.0400   41.6020   47.9650 H   0  0  0  0  0  0  0  0  0  0  0  0
    4.8620   40.0420   46.5560 H   0  0  0  0  0  0  0  0  0  0  0  0
    2.2000   39.1975   47.7332 H   0  0  0  0  0  0  0  0  0  0  0  0
    1.8177   40.8052   45.8706 H   0  0  0  0  0  0  0  0  0  0  0  0
    2.7860   39.7387   44.7776 H   0  0  0  0  0  0  0  0  0  0  0  0
   -0.0231   39.4639   45.7304 H   0  0  0  0  0  0  0  0  0  0  0  0
    0.8072   38.8136   44.2427 H   0  0  0  0  0  0  0  0  0  0  0  0
    0.3695   35.9276   44.7661 H   0  0  0  0  0  0  0  0  0  0  0  0
   -1.8737   37.9863   45.0846 H   0  0  0  0  0  0  0  0  0  0  0  0
   -0.6022   38.1464   43.8260 H   0  0  0  0  0  0  0  0  0  0  0  0
   -1.6910   36.7177   43.8260 H   0  0  0  0  0  0  0  0  0  0  0  0
    0.5608   34.5417   46.9387 H   0  0  0  0  0  0  0  0  0  0  0  0
   -0.7624   33.4776   48.7681 H   0  0  0  0  0  0  0  0  0  0  0  0
   -3.0194   34.3645   49.3595 H   0  0  0  0  0  0  0  0  0  0  0  0
   -3.9608   36.3154   48.1162 H   0  0  0  0  0  0  0  0  0  0  0  0
   -2.6492   37.3870   46.2838 H   0  0  0  0  0  0  0  0  0  0  0  0
    2.2247   35.9307   46.0676 H   0  0  0  0  0  0  0  0  0  0  0  0
    2.5072   37.0489   44.6756 H   0  0  0  0  0  0  0  0  0  0  0  0
    3.4595   37.2212   47.5141 H   0  0  0  0  0  0  0  0  0  0  0  0
    4.2256   37.7854   45.9664 H   0  0  0  0  0  0  0  0  0  0  0  0
    4.8444   46.1309   52.4570 H   0  0  0  0  0  0  0  0  0  0  0  0
    5.9183   48.2848   53.1191 H   0  0  0  0  0  0  0  0  0  0  0  0
    9.5066   47.1625   50.9770 H   0  0  0  0  0  0  0  0  0  0  0  0
  1  2  1  0
  2  3  2  0
  3  4  1  0
  4  5  1  0
  5  6  1  0
  6  7  2  0
  6  8  1  0
  8  9  1  0
  9 10  1  0
 10 11  1  0
 11 12  1  0
 12 13  1  0
 13 14  1  0
 13 15  1  0
 15 16  2  0
 16 17  1  0
 17 18  2  0
 18 19  1  0
 19 20  2  0
 12 21  1  0
 21 22  1  0
  4 23  2  0
 23 24  1  0
 24 25  1  0
 25 26  2  0
 26 27  1  0
 27 28  2  0
 28 29  1  0
 28 30  1  0
 30 31  2  0
 31 32  1  0
 24  2  1  0
 31 25  1  0
 22  9  1  0
 20 15  1  0
  1 33  1  0
  1 34  1  0
  1 35  1  0
  3 36  1  0
  5 37  1  0
  8 38  1  0
  9 39  1  0
 10 40  1  0
 10 41  1  0
 11 42  1  0
 11 43  1  0
 13 44  1  6
 14 45  1  0
 14 46  1  0
 14 47  1  0
 16 48  1  0
 17 49  1  0
 18 50  1  0
 19 51  1  0
 20 52  1  0
 21 53  1  0
 21 54  1  0
 22 55  1  0
 22 56  1  0
 26 57  1  0
 27 58  1  0
 30 59  1  0
M  END
>  <meeko>  (3) 
{"is_sidechain": [false], "free_energy": -8.659, "intermolecular_energy": -10.808, "internal_energy": 0.202}

$$$$
ligand_2_conformer_2_docked
     RDKit          3D

 59 62  0  0  0  0  0  0  0  0999 V2000
    5.6670   44.8560   55.7110 C   0  0  0  0  0  0  0  0  0  0  0  0
    4.6440   45.2420   54.6870 C   0  0  0  0  0  0  0  0  0  0  0  0
    3.2750   45.1300   54.8400 C   0  0  0  0  0  0  0  0  0  0  0  0
    2.7660   45.7310   53.7060 C   0  0  0  0  0  0  0  0  0  0  0  0
    1.3700   45.8920   53.4200 N   0  0  0  0  0  0  0  0  0  0  0  0
    0.7240   45.3360   52.2640 C   0  0  0  0  0  0  0  0  0  0  0  0
    1.4010   44.7360   51.3820 O   0  0  0  0  0  0  0  0  0  0  0  0
   -0.6940   45.4820   52.1040 N   0  0  0  0  0  0  0  0  0  0  0  0
   -1.4160   44.9040   50.9630 C   0  0  0  0  0  0  0  0  0  0  0  0
   -1.5860   43.3910   51.1430 C   0  0  0  0  0  0  0  0  0  0  0  0
   -2.2880   42.7610   49.9180 C   0  0  0  0  0  0  0  0  0  0  0  0
   -3.0270   43.7570   49.0920 N   0  0  0  0  0  0  0  0  0  0  0  0
   -3.9430   43.1040   48.1130 C   0  0  2  0  0  0  0  0  0  0  0  0
   -3.9550   41.5680   48.2440 C   0  0  0  0  0  0  0  0  0  0  0  0
   -3.5320   43.4410   46.6910 C   0  0  0  0  0  0  0  0  0  0  0  0
   -2.8780   42.4860   45.8890 C   0  0  0  0  0  0  0  0  0  0  0  0
   -2.5050   42.8010   44.5770 C   0  0  0  0  0  0  0  0  0  0  0  0
   -2.7870   44.0650   44.0530 C   0  0  0  0  0  0  0  0  0  0  0  0
   -3.4430   45.0180   44.8400 C   0  0  0  0  0  0  0  0  0  0  0  0
   -3.8170   44.7100   46.1520 C   0  0  0  0  0  0  0  0  0  0  0  0
   -3.7700   44.6850   49.9780 C   0  0  0  0  0  0  0  0  0  0  0  0
   -2.8010   45.5640   50.7950 C   0  0  0  0  0  0  0  0  0  0  0  0
    3.7640   46.1780   52.9160 N   0  0  0  0  0  0  0  0  0  0  0  0
    4.9020   45.8630   53.5120 N   0  0  0  0  0  0  0  0  0  0  0  0
    6.1870   46.2030   52.9740 C   0  0  0  0  0  0  0  0  0  0  0  0
    7.0570   47.0200   53.7120 C   0  0  0  0  0  0  0  0  0  0  0  0
    8.3040   47.3730   53.1870 C   0  0  0  0  0  0  0  0  0  0  0  0
    8.6830   46.9270   51.9180 C   0  0  0  0  0  0  0  0  0  0  0  0
    9.8900   47.2740   51.4080 F   0  0  0  0  0  0  0  0  0  0  0  0
    7.8120   46.1280   51.1680 C   0  0  0  0  0  0  0  0  0  0  0  0
    6.5650   45.7670   51.6910 C   0  0  0  0  0  0  0  0  0  0  0  0
    5.7120   45.0370   50.9290 F   0  0  0  0  0  0  0  0  0  0  0  0
    5.2541   45.0118   56.7186 H   0  0  0  0  0  0  0  0  0  0  0  0
    5.9320   43.7961   55.5832 H   0  0  0  0  0  0  0  0  0  0  0  0
    6.5661   45.4767   55.5832 H   0  0  0  0  0  0  0  0  0  0  0  0
    2.7205   44.6696   55.6710 H   0  0  0  0  0  0  0  0  0  0  0  0
    0.7950   46.4550   54.0880 H   0  0  0  0  0  0  0  0  0  0  0  0
   -1.2090   46.0520   52.8110 H   0  0  0  0  0  0  0  0  0  0  0  0
   -0.8206   45.0950   50.0580 H   0  0  0  0  0  0  0  0  0  0  0  0
   -0.5948   42.9300   51.2657 H   0  0  0  0  0  0  0  0  0  0  0  0
   -2.2078   43.2123   52.0326 H   0  0  0  0  0  0  0  0  0  0  0  0
   -1.5263   42.2793   49.2873 H   0  0  0  0  0  0  0  0  0  0  0  0
   -3.0251   42.0382   50.2979 H   0  0  0  0  0  0  0  0  0  0  0  0
   -4.9485   43.4897   48.3368 H   0  0  0  0  0  0  0  0  0  0  0  0
   -3.9572   41.2908   49.3085 H   0  0  0  0  0  0  0  0  0  0  0  0
   -4.8563   41.1656   47.7585 H   0  0  0  0  0  0  0  0  0  0  0  0
   -3.0601   41.1516   47.7585 H   0  0  0  0  0  0  0  0  0  0  0  0
   -2.6591   41.4876   46.2955 H   0  0  0  0  0  0  0  0  0  0  0  0
   -1.9892   42.0523   43.9578 H   0  0  0  0  0  0  0  0  0  0  0  0
   -2.4934   44.3110   43.0219 H   0  0  0  0  0  0  0  0  0  0  0  0
   -3.6652   46.0124   44.4256 H   0  0  0  0  0  0  0  0  0  0  0  0
   -4.3357   45.4619   46.7649 H   0  0  0  0  0  0  0  0  0  0  0  0
   -4.4118   45.3330   49.3630 H   0  0  0  0  0  0  0  0  0  0  0  0
   -4.3781   44.0913   50.6764 H   0  0  0  0  0  0  0  0  0  0  0  0
   -2.6743   46.5266   50.2779 H   0  0  0  0  0  0  0  0  0  0  0  0
   -3.2333   45.7017   51.7971 H   0  0  0  0  0  0  0  0  0  0  0  0
    6.7573   47.3836   54.7060 H   0  0  0  0  0  0  0  0  0  0  0  0
    8.9882   48.0032   53.7742 H   0  0  0  0  0  0  0  0  0  0  0  0
    8.1080   45.7834   50.1662 H   0  0  0  0  0  0  0  0  0  0  0  0
  1  2  1  0
  2  3  2  0
  3  4  1  0
  4  5  1  0
  5  6  1  0
  6  7  2  0
  6  8  1  0
  8  9  1  0
  9 10  1  0
 10 11  1  0
 11 12  1  0
 12 13  1  0
 13 14  1  0
 13 15  1  0
 15 16  2  0
 16 17  1  0
 17 18  2  0
 18 19  1  0
 19 20  2  0
 12 21  1  0
 21 22  1  0
  4 23  2  0
 23 24  1  0
 24 25  1  0
 25 26  2  0
 26 27  1  0
 27 28  2  0
 28 29  1  0
 28 30  1  0
 30 31  2  0
 31 32  1  0
 24  2  1  0
 31 25  1  0
 22  9  1  0
 20 15  1  0
  1 33  1  0
  1 34  1  0
  1 35  1  0
  3 36  1  0
  5 37  1  0
  8 38  1  0
  9 39  1  0
 10 40  1  0
 10 41  1  0
 11 42  1  0
 11 43  1  0
 13 44  1  1
 14 45  1  0
 14 46  1  0
 14 47  1  0
 16 48  1  0
 17 49  1  0
 18 50  1  0
 19 51  1  0
 20 52  1  0
 21 53  1  0
 21 54  1  0
 22 55  1  0
 22 56  1  0
 26 57  1  0
 27 58  1  0
 30 59  1  0
M  END
>  <meeko>  (4) 
{"is_sidechain": [false], "free_energy": -8.603, "intermolecular_energy": -9.898, "internal_energy": -0.636}

$$$$
ligand_2_conformer_2_docked
     RDKit          3D

 59 62  0  0  0  0  0  0  0  0999 V2000
    3.3320   45.6800   53.7100 C   0  0  0  0  0  0  0  0  0  0  0  0
    3.7180   44.4820   52.8970 C   0  0  0  0  0  0  0  0  0  0  0  0
    2.8740   43.4450   52.5480 C   0  0  0  0  0  0  0  0  0  0  0  0
    3.6390   42.6690   51.7000 C   0  0  0  0  0  0  0  0  0  0  0  0
    3.1820   41.4780   51.0440 N   0  0  0  0  0  0  0  0  0  0  0  0
    3.5580   41.1090   49.7080 C   0  0  0  0  0  0  0  0  0  0  0  0
    4.2640   41.8880   49.0060 O   0  0  0  0  0  0  0  0  0  0  0  0
    3.1140   39.8590   49.1650 N   0  0  0  0  0  0  0  0  0  0  0  0
    3.4960   39.4110   47.8200 C   0  0  0  0  0  0  0  0  0  0  0  0
    2.6790   38.1800   47.4090 C   0  0  0  0  0  0  0  0  0  0  0  0
    3.1180   37.6590   46.0210 C   0  0  0  0  0  0  0  0  0  0  0  0
    3.8580   38.6760   45.2230 N   0  0  0  0  0  0  0  0  0  0  0  0
    3.9950   38.2760   43.7930 C   0  0  2  0  0  0  0  0  0  0  0  0
    3.0200   37.1490   43.3950 C   0  0  0  0  0  0  0  0  0  0  0  0
    5.4040   37.7870   43.5080 C   0  0  0  0  0  0  0  0  0  0  0  0
    6.4440   38.7020   43.2580 C   0  0  0  0  0  0  0  0  0  0  0  0
    7.7410   38.2460   42.9990 C   0  0  0  0  0  0  0  0  0  0  0  0
    8.0130   36.8760   42.9970 C   0  0  0  0  0  0  0  0  0  0  0  0
    6.9890   35.9580   43.2520 C   0  0  0  0  0  0  0  0  0  0  0  0
    5.6890   36.4080   43.5090 C   0  0  0  0  0  0  0  0  0  0  0  0
    3.1840   39.9910   45.3450 C   0  0  0  0  0  0  0  0  0  0  0  0
    3.2900   40.5360   46.7830 C   0  0  0  0  0  0  0  0  0  0  0  0
    4.8690   43.2020   51.5470 N   0  0  0  0  0  0  0  0  0  0  0  0
    4.9130   44.2950   52.2890 N   0  0  0  0  0  0  0  0  0  0  0  0
    6.0650   45.1480   52.3590 C   0  0  0  0  0  0  0  0  0  0  0  0
    6.5730   45.7280   51.1860 C   0  0  0  0  0  0  0  0  0  0  0  0
    7.7070   46.5440   51.2410 C   0  0  0  0  0  0  0  0  0  0  0  0
    8.3490   46.7720   52.4620 C   0  0  0  0  0  0  0  0  0  0  0  0
    9.4510   47.5600   52.5140 F   0  0  0  0  0  0  0  0  0  0  0  0
    7.8590   46.1800   53.6310 C   0  0  0  0  0  0  0  0  0  0  0  0
    6.7210   45.3670   53.5830 C   0  0  0  0  0  0  0  0  0  0  0  0
    6.2910   44.7590   54.7170 F   0  0  0  0  0  0  0  0  0  0  0  0
    3.4101   45.4376   54.7801 H   0  0  0  0  0  0  0  0  0  0  0  0
    4.0061   46.5164   53.4734 H   0  0  0  0  0  0  0  0  0  0  0  0
    2.2964   45.9655   53.4734 H   0  0  0  0  0  0  0  0  0  0  0  0
    1.8358   43.2770   52.8703 H   0  0  0  0  0  0  0  0  0  0  0  0
    2.5280   40.8510   51.5670 H   0  0  0  0  0  0  0  0  0  0  0  0
    2.4670   39.2780   49.7430 H   0  0  0  0  0  0  0  0  0  0  0  0
    4.5630   39.1448   47.8472 H   0  0  0  0  0  0  0  0  0  0  0  0
    2.8274   37.3850   48.1546 H   0  0  0  0  0  0  0  0  0  0  0  0
    1.6183   38.4665   47.3553 H   0  0  0  0  0  0  0  0  0  0  0  0
    3.7700   36.7849   46.1652 H   0  0  0  0  0  0  0  0  0  0  0  0
    2.2053   37.4040   45.4624 H   0  0  0  0  0  0  0  0  0  0  0  0
    3.7612   39.1755   43.2045 H   0  0  0  0  0  0  0  0  0  0  0  0
    2.6131   36.6787   44.3024 H   0  0  0  0  0  0  0  0  0  0  0  0
    2.1965   37.5699   42.7994 H   0  0  0  0  0  0  0  0  0  0  0  0
    3.5550   36.3947   42.7994 H   0  0  0  0  0  0  0  0  0  0  0  0
    6.2357   39.7821   43.2663 H   0  0  0  0  0  0  0  0  0  0  0  0
    8.5470   38.9668   42.7968 H   0  0  0  0  0  0  0  0  0  0  0  0
    9.0335   36.5187   42.7947 H   0  0  0  0  0  0  0  0  0  0  0  0
    7.2060   34.8796   43.2505 H   0  0  0  0  0  0  0  0  0  0  0  0
    4.8876   35.6825   43.7123 H   0  0  0  0  0  0  0  0  0  0  0  0
    3.6586   40.7037   44.6545 H   0  0  0  0  0  0  0  0  0  0  0  0
    2.1200   39.8633   45.0966 H   0  0  0  0  0  0  0  0  0  0  0  0
    4.1431   41.2283   46.8373 H   0  0  0  0  0  0  0  0  0  0  0  0
    2.3447   41.0456   47.0213 H   0  0  0  0  0  0  0  0  0  0  0  0
    6.0780   45.5402   50.2218 H   0  0  0  0  0  0  0  0  0  0  0  0
    8.0949   47.0075   50.3219 H   0  0  0  0  0  0  0  0  0  0  0  0
    8.3693   46.3539   54.5898 H   0  0  0  0  0  0  0  0  0  0  0  0
  1  2  1  0
  2  3  2  0
  3  4  1  0
  4  5  1  0
  5  6  1  0
  6  7  2  0
  6  8  1  0
  8  9  1  0
  9 10  1  0
 10 11  1  0
 11 12  1  0
 12 13  1  0
 13 14  1  0
 13 15  1  0
 15 16  2  0
 16 17  1  0
 17 18  2  0
 18 19  1  0
 19 20  2  0
 12 21  1  0
 21 22  1  0
  4 23  2  0
 23 24  1  0
 24 25  1  0
 25 26  2  0
 26 27  1  0
 27 28  2  0
 28 29  1  0
 28 30  1  0
 30 31  2  0
 31 32  1  0
 24  2  1  0
 31 25  1  0
 22  9  1  0
 20 15  1  0
  1 33  1  0
  1 34  1  0
  1 35  1  0
  3 36  1  0
  5 37  1  0
  8 38  1  0
  9 39  1  0
 10 40  1  0
 10 41  1  0
 11 42  1  0
 11 43  1  0
 13 44  1  6
 14 45  1  0
 14 46  1  0
 14 47  1  0
 16 48  1  0
 17 49  1  0
 18 50  1  0
 19 51  1  0
 20 52  1  0
 21 53  1  0
 21 54  1  0
 22 55  1  0
 22 56  1  0
 26 57  1  0
 27 58  1  0
 30 59  1  0
M  END
>  <meeko>  (5) 
{"is_sidechain": [false], "free_energy": -8.599, "intermolecular_energy": -10.379, "internal_energy": -0.15}

$$$$
