ligand_90_conformer_2_docked
     RDKit          3D

 47 49  0  0  0  0  0  0  0  0999 V2000
   -0.5920   44.7030   54.7470 C   0  0  0  0  0  0  0  0  0  0  0  0
    0.5950   45.4110   55.2540 N   0  0  0  0  0  0  0  0  0  0  0  0
    0.3990   45.7290   56.6790 C   0  0  0  0  0  0  0  0  0  0  0  0
    1.8120   44.5900   55.0450 C   0  0  0  0  0  0  0  0  0  0  0  0
    2.6300   45.0900   53.8180 C   0  0  2  0  0  0  0  0  0  0  0  0
    2.6610   44.0860   52.6760 C   0  0  0  0  0  0  0  0  0  0  0  0
    1.5710   43.9160   51.7970 C   0  0  0  0  0  0  0  0  0  0  0  0
    1.6240   42.9580   50.7800 C   0  0  0  0  0  0  0  0  0  0  0  0
    2.7520   42.1490   50.6350 C   0  0  0  0  0  0  0  0  0  0  0  0
    3.8300   42.2930   51.5110 C   0  0  0  0  0  0  0  0  0  0  0  0
    3.7840   43.2490   52.5290 C   0  0  0  0  0  0  0  0  0  0  0  0
    4.0200   45.5220   54.1240 N   0  0  0  0  0  0  0  0  0  0  0  0
    4.3100   45.7870   55.5410 C   0  0  0  0  0  0  0  0  0  0  0  0
    4.5590   46.8540   53.1230 S   0  0  0  0  0  0  0  0  0  0  0  0
    3.4860   47.1940   52.1260 O   0  0  0  0  0  0  0  0  0  0  0  0
    4.7730   48.0670   53.9820 O   0  0  0  0  0  0  0  0  0  0  0  0
    6.0320   46.4530   52.2290 C   0  0  0  0  0  0  0  0  0  0  0  0
    5.9680   45.8270   50.9830 C   0  0  0  0  0  0  0  0  0  0  0  0
    7.5330   45.5440   50.4180 S   0  0  0  0  0  0  0  0  0  0  0  0
    8.3020   46.2170   51.7450 C   0  0  0  0  0  0  0  0  0  0  0  0
    9.6720   46.3190   51.9710 C   0  0  0  0  0  0  0  0  0  0  0  0
   10.1060   46.9120   53.1650 C   0  0  0  0  0  0  0  0  0  0  0  0
    9.1700   47.3840   54.1010 C   0  0  0  0  0  0  0  0  0  0  0  0
    7.7920   47.2690   53.8540 C   0  0  0  0  0  0  0  0  0  0  0  0
    7.3590   46.6760   52.6580 C   0  0  0  0  0  0  0  0  0  0  0  0
   -1.1944   44.3437   55.5944 H   0  0  0  0  0  0  0  0  0  0  0  0
   -1.1944   45.3895   54.1339 H   0  0  0  0  0  0  0  0  0  0  0  0
   -0.2742   43.8468   54.1339 H   0  0  0  0  0  0  0  0  0  0  0  0
    0.8766   44.9541   57.2967 H   0  0  0  0  0  0  0  0  0  0  0  0
    0.8516   46.7064   56.9022 H   0  0  0  0  0  0  0  0  0  0  0  0
   -0.6776   45.7639   56.9022 H   0  0  0  0  0  0  0  0  0  0  0  0
    2.4428   44.6496   55.9442 H   0  0  0  0  0  0  0  0  0  0  0  0
    1.5013   43.5521   54.8546 H   0  0  0  0  0  0  0  0  0  0  0  0
    2.0734   45.9851   53.5033 H   0  0  0  0  0  0  0  0  0  0  0  0
    0.6734   44.5412   51.9124 H   0  0  0  0  0  0  0  0  0  0  0  0
    0.7738   42.8415   50.0918 H   0  0  0  0  0  0  0  0  0  0  0  0
    2.7919   41.3987   49.8315 H   0  0  0  0  0  0  0  0  0  0  0  0
    4.7173   41.6524   51.3994 H   0  0  0  0  0  0  0  0  0  0  0  0
    4.6326   43.3487   53.2218 H   0  0  0  0  0  0  0  0  0  0  0  0
    3.6445   45.1789   56.1714 H   0  0  0  0  0  0  0  0  0  0  0  0
    5.3571   45.5271   55.7558 H   0  0  0  0  0  0  0  0  0  0  0  0
    4.1453   46.8532   55.7558 H   0  0  0  0  0  0  0  0  0  0  0  0
    5.0423   45.5599   50.4523 H   0  0  0  0  0  0  0  0  0  0  0  0
   10.3952   45.9440   51.2319 H   0  0  0  0  0  0  0  0  0  0  0  0
   11.1825   47.0081   53.3698 H   0  0  0  0  0  0  0  0  0  0  0  0
    9.5196   47.8476   55.0353 H   0  0  0  0  0  0  0  0  0  0  0  0
    7.0616   47.6390   54.5886 H   0  0  0  0  0  0  0  0  0  0  0  0
  1  2  1  0
  2  3  1  0
  2  4  1  0
  4  5  1  0
  5  6  1  0
  6  7  2  0
  7  8  1  0
  8  9  2  0
  9 10  1  0
 10 11  2  0
  5 12  1  0
 12 13  1  0
 12 14  1  0
 14 15  2  0
 14 16  2  0
 14 17  1  0
 17 18  2  0
 18 19  1  0
 19 20  1  0
 20 21  2  0
 21 22  1  0
 22 23  2  0
 23 24  1  0
 24 25  2  0
 11  6  1  0
 25 17  1  0
 25 20  1  0
  1 26  1  0
  1 27  1  0
  1 28  1  0
  3 29  1  0
  3 30  1  0
  3 31  1  0
  4 32  1  0
  4 33  1  0
  5 34  1  6
  7 35  1  0
  8 36  1  0
  9 37  1  0
 10 38  1  0
 11 39  1  0
 13 40  1  0
 13 41  1  0
 13 42  1  0
 18 43  1  0
 21 44  1  0
 22 45  1  0
 23 46  1  0
 24 47  1  0
M  END
>  <meeko>  (1) 
{"is_sidechain": [false], "free_energy": -8.71, "intermolecular_energy": -11.766, "internal_energy": -0.758}

$$$$
ligand_90_conformer_2_docked
     RDKit          3D

 47 49  0  0  0  0  0  0  0  0999 V2000
   -0.4670   44.7570   55.7750 C   0  0  0  0  0  0  0  0  0  0  0  0
    0.7020   45.6250   55.9910 N   0  0  0  0  0  0  0  0  0  0  0  0
    0.7300   46.0630   57.3980 C   0  0  0  0  0  0  0  0  0  0  0  0
    1.9480   44.9110   55.6220 C   0  0  0  0  0  0  0  0  0  0  0  0
    2.5040   45.4100   54.2550 C   0  0  2  0  0  0  0  0  0  0  0  0
    1.9970   44.5950   53.0760 C   0  0  0  0  0  0  0  0  0  0  0  0
    2.6190   43.3950   52.6720 C   0  0  0  0  0  0  0  0  0  0  0  0
    2.1460   42.6910   51.5610 C   0  0  0  0  0  0  0  0  0  0  0  0
    1.0600   43.1790   50.8310 C   0  0  0  0  0  0  0  0  0  0  0  0
    0.4480   44.3750   51.2070 C   0  0  0  0  0  0  0  0  0  0  0  0
    0.9170   45.0840   52.3170 C   0  0  0  0  0  0  0  0  0  0  0  0
    3.9870   45.5070   54.1780 N   0  0  0  0  0  0  0  0  0  0  0  0
    4.7090   45.2690   55.4370 C   0  0  0  0  0  0  0  0  0  0  0  0
    4.5380   46.9860   53.4190 S   0  0  0  0  0  0  0  0  0  0  0  0
    3.4900   47.4720   52.4560 O   0  0  0  0  0  0  0  0  0  0  0  0
    4.7100   48.0480   54.4660 O   0  0  0  0  0  0  0  0  0  0  0  0
    6.0410   46.7450   52.5190 C   0  0  0  0  0  0  0  0  0  0  0  0
    7.1170   47.6210   52.6690 C   0  0  0  0  0  0  0  0  0  0  0  0
    8.3730   47.1450   51.6470 S   0  0  0  0  0  0  0  0  0  0  0  0
    7.5640   45.8230   51.0110 C   0  0  0  0  0  0  0  0  0  0  0  0
    8.0240   44.9300   50.0470 C   0  0  0  0  0  0  0  0  0  0  0  0
    7.1730   43.8920   49.6430 C   0  0  0  0  0  0  0  0  0  0  0  0
    5.8900   43.7710   50.2050 C   0  0  0  0  0  0  0  0  0  0  0  0
    5.4450   44.6850   51.1740 C   0  0  0  0  0  0  0  0  0  0  0  0
    6.2990   45.7230   51.5780 C   0  0  0  0  0  0  0  0  0  0  0  0
   -0.8804   44.4501   56.7471 H   0  0  0  0  0  0  0  0  0  0  0  0
   -1.2325   45.3072   55.2083 H   0  0  0  0  0  0  0  0  0  0  0  0
   -0.1617   43.8650   55.2083 H   0  0  0  0  0  0  0  0  0  0  0  0
    0.6738   45.1839   58.0569 H   0  0  0  0  0  0  0  0  0  0  0  0
    1.6649   46.6087   57.5936 H   0  0  0  0  0  0  0  0  0  0  0  0
   -0.1278   46.7233   57.5936 H   0  0  0  0  0  0  0  0  0  0  0  0
    2.7046   45.0849   56.4013 H   0  0  0  0  0  0  0  0  0  0  0  0
    1.7197   43.8387   55.5328 H   0  0  0  0  0  0  0  0  0  0  0  0
    2.1078   46.4341   54.1900 H   0  0  0  0  0  0  0  0  0  0  0  0
    3.4822   43.0107   53.2352 H   0  0  0  0  0  0  0  0  0  0  0  0
    2.6304   41.7501   51.2608 H   0  0  0  0  0  0  0  0  0  0  0  0
    0.6872   42.6205   49.9597 H   0  0  0  0  0  0  0  0  0  0  0  0
   -0.4049   44.7608   50.6293 H   0  0  0  0  0  0  0  0  0  0  0  0
    0.4376   46.0328   52.5999 H   0  0  0  0  0  0  0  0  0  0  0  0
    4.0458   45.4876   56.2870 H   0  0  0  0  0  0  0  0  0  0  0  0
    5.0294   44.2177   55.4828 H   0  0  0  0  0  0  0  0  0  0  0  0
    5.5918   45.9237   55.4828 H   0  0  0  0  0  0  0  0  0  0  0  0
    7.1425   48.4865   53.3474 H   0  0  0  0  0  0  0  0  0  0  0  0
    9.0294   45.0363   49.6135 H   0  0  0  0  0  0  0  0  0  0  0  0
    7.5099   43.1703   48.8843 H   0  0  0  0  0  0  0  0  0  0  0  0
    5.2288   42.9531   49.8829 H   0  0  0  0  0  0  0  0  0  0  0  0
    4.4400   44.5886   51.6107 H   0  0  0  0  0  0  0  0  0  0  0  0
  1  2  1  0
  2  3  1  0
  2  4  1  0
  4  5  1  0
  5  6  1  0
  6  7  2  0
  7  8  1  0
  8  9  2  0
  9 10  1  0
 10 11  2  0
  5 12  1  0
 12 13  1  0
 12 14  1  0
 14 15  2  0
 14 16  2  0
 14 17  1  0
 17 18  2  0
 18 19  1  0
 19 20  1  0
 20 21  2  0
 21 22  1  0
 22 23  2  0
 23 24  1  0
 24 25  2  0
 11  6  1  0
 25 17  1  0
 25 20  1  0
  1 26  1  0
  1 27  1  0
  1 28  1  0
  3 29  1  0
  3 30  1  0
  3 31  1  0
  4 32  1  0
  4 33  1  0
  5 34  1  6
  7 35  1  0
  8 36  1  0
  9 37  1  0
 10 38  1  0
 11 39  1  0
 13 40  1  0
 13 41  1  0
 13 42  1  0
 18 43  1  0
 21 44  1  0
 22 45  1  0
 23 46  1  0
 24 47  1  0
M  END
>  <meeko>  (2) 
{"is_sidechain": [false], "free_energy": -8.549, "intermolecular_energy": -11.142, "internal_energy": -1.163}

$$$$
ligand_90_conformer_2_docked
     RDKit          3D

 47 49  0  0  0  0  0  0  0  0999 V2000
    1.9260   42.6220   50.8230 C   0  0  0  0  0  0  0  0  0  0  0  0
    2.4070   43.1330   52.1170 N   0  0  0  0  0  0  0  0  0  0  0  0
    3.8230   42.7600   52.2920 C   0  0  0  0  0  0  0  0  0  0  0  0
    2.2230   44.6030   52.1910 C   0  0  0  0  0  0  0  0  0  0  0  0
    2.6110   45.1520   53.5960 C   0  0  2  0  0  0  0  0  0  0  0  0
    1.4700   45.0740   54.5990 C   0  0  0  0  0  0  0  0  0  0  0  0
    1.6760   45.2500   55.9840 C   0  0  0  0  0  0  0  0  0  0  0  0
    0.6080   45.1360   56.8780 C   0  0  0  0  0  0  0  0  0  0  0  0
   -0.6710   44.8330   56.4100 C   0  0  0  0  0  0  0  0  0  0  0  0
   -0.8850   44.6360   55.0450 C   0  0  0  0  0  0  0  0  0  0  0  0
    0.1780   44.7480   54.1450 C   0  0  0  0  0  0  0  0  0  0  0  0
    3.1670   46.5320   53.5990 N   0  0  0  0  0  0  0  0  0  0  0  0
    3.0470   47.2720   52.3330 C   0  0  0  0  0  0  0  0  0  0  0  0
    4.8070   46.6080   54.2070 S   0  0  0  0  0  0  0  0  0  0  0  0
    5.0650   47.9770   54.7740 O   0  0  0  0  0  0  0  0  0  0  0  0
    4.9680   45.6210   55.3270 O   0  0  0  0  0  0  0  0  0  0  0  0
    5.9970   46.3090   52.9330 C   0  0  0  0  0  0  0  0  0  0  0  0
    5.6130   45.7840   51.6990 C   0  0  0  0  0  0  0  0  0  0  0  0
    6.9780   45.5770   50.7290 S   0  0  0  0  0  0  0  0  0  0  0  0
    8.0660   46.1560   51.8640 C   0  0  0  0  0  0  0  0  0  0  0  0
    9.4480   46.2670   51.7370 C   0  0  0  0  0  0  0  0  0  0  0  0
   10.1760   46.7700   52.8230 C   0  0  0  0  0  0  0  0  0  0  0  0
    9.5140   47.1470   54.0050 C   0  0  0  0  0  0  0  0  0  0  0  0
    8.1190   47.0260   54.1120 C   0  0  0  0  0  0  0  0  0  0  0  0
    7.3910   46.5230   53.0230 C   0  0  0  0  0  0  0  0  0  0  0  0
    1.1813   41.8309   50.9951 H   0  0  0  0  0  0  0  0  0  0  0  0
    1.4646   43.4422   50.2535 H   0  0  0  0  0  0  0  0  0  0  0  0
    2.7726   42.2110   50.2535 H   0  0  0  0  0  0  0  0  0  0  0  0
    4.0561   42.6986   53.3653 H   0  0  0  0  0  0  0  0  0  0  0  0
    4.0058   41.7831   51.8206 H   0  0  0  0  0  0  0  0  0  0  0  0
    4.4634   43.5201   51.8206 H   0  0  0  0  0  0  0  0  0  0  0  0
    2.8578   45.0823   51.4312 H   0  0  0  0  0  0  0  0  0  0  0  0
    1.1618   44.8295   52.0107 H   0  0  0  0  0  0  0  0  0  0  0  0
    3.4199   44.4746   53.9073 H   0  0  0  0  0  0  0  0  0  0  0  0
    2.6834   45.4783   56.3621 H   0  0  0  0  0  0  0  0  0  0  0  0
    0.7763   45.2857   57.9547 H   0  0  0  0  0  0  0  0  0  0  0  0
   -1.5101   44.7494   57.1164 H   0  0  0  0  0  0  0  0  0  0  0  0
   -1.8925   44.3921   54.6769 H   0  0  0  0  0  0  0  0  0  0  0  0
    0.0036   44.5799   53.0720 H   0  0  0  0  0  0  0  0  0  0  0  0
    2.8743   48.3373   52.5459 H   0  0  0  0  0  0  0  0  0  0  0  0
    3.9751   47.1598   51.7533 H   0  0  0  0  0  0  0  0  0  0  0  0
    2.2020   46.8722   51.7533 H   0  0  0  0  0  0  0  0  0  0  0  0
    4.5811   45.5426   51.4042 H   0  0  0  0  0  0  0  0  0  0  0  0
    9.9551   45.9675   50.8080 H   0  0  0  0  0  0  0  0  0  0  0  0
   11.2690   46.8704   52.7509 H   0  0  0  0  0  0  0  0  0  0  0  0
   10.0939   47.5401   54.8531 H   0  0  0  0  0  0  0  0  0  0  0  0
    7.6036   47.3218   55.0377 H   0  0  0  0  0  0  0  0  0  0  0  0
  1  2  1  0
  2  3  1  0
  2  4  1  0
  4  5  1  0
  5  6  1  0
  6  7  2  0
  7  8  1  0
  8  9  2  0
  9 10  1  0
 10 11  2  0
  5 12  1  0
 12 13  1  0
 12 14  1  0
 14 15  2  0
 14 16  2  0
 14 17  1  0
 17 18  2  0
 18 19  1  0
 19 20  1  0
 20 21  2  0
 21 22  1  0
 22 23  2  0
 23 24  1  0
 24 25  2  0
 11  6  1  0
 25 17  1  0
 25 20  1  0
  1 26  1  0
  1 27  1  0
  1 28  1  0
  3 29  1  0
  3 30  1  0
  3 31  1  0
  4 32  1  0
  4 33  1  0
  5 34  1  1
  7 35  1  0
  8 36  1  0
  9 37  1  0
 10 38  1  0
 11 39  1  0
 13 40  1  0
 13 41  1  0
 13 42  1  0
 18 43  1  0
 21 44  1  0
 22 45  1  0
 23 46  1  0
 24 47  1  0
M  END
>  <meeko>  (3) 
{"is_sidechain": [false], "free_energy": -8.315, "intermolecular_energy": -11.798, "internal_energy": -0.192}

$$$$
ligand_90_conformer_2_docked
     RDKit          3D

 47 49  0  0  0  0  0  0  0  0999 V2000
    0.1600   44.9570   54.7140 C   0  0  0  0  0  0  0  0  0  0  0  0
    0.5760   44.3500   53.4390 N   0  0  0  0  0  0  0  0  0  0  0  0
    0.6730   45.4000   52.4090 C   0  0  0  0  0  0  0  0  0  0  0  0
    1.8640   43.6350   53.6050 C   0  0  0  0  0  0  0  0  0  0  0  0
    2.9530   44.1980   52.6450 C   0  0  2  0  0  0  0  0  0  0  0  0
    3.5190   43.1450   51.7060 C   0  0  0  0  0  0  0  0  0  0  0  0
    4.9070   42.9820   51.5120 C   0  0  0  0  0  0  0  0  0  0  0  0
    5.3890   42.0240   50.6150 C   0  0  0  0  0  0  0  0  0  0  0  0
    4.4990   41.2310   49.8890 C   0  0  0  0  0  0  0  0  0  0  0  0
    3.1230   41.3950   50.0560 C   0  0  0  0  0  0  0  0  0  0  0  0
    2.6350   42.3500   50.9520 C   0  0  0  0  0  0  0  0  0  0  0  0
    4.0770   44.9050   53.3160 N   0  0  0  0  0  0  0  0  0  0  0  0
    3.8900   45.1890   54.7470 C   0  0  0  0  0  0  0  0  0  0  0  0
    4.5860   46.3470   52.4620 S   0  0  0  0  0  0  0  0  0  0  0  0
    3.6910   46.5640   51.2730 O   0  0  0  0  0  0  0  0  0  0  0  0
    4.4330   47.5390   53.3620 O   0  0  0  0  0  0  0  0  0  0  0  0
    6.2510   46.2140   51.8780 C   0  0  0  0  0  0  0  0  0  0  0  0
    6.5310   45.6740   50.6220 C   0  0  0  0  0  0  0  0  0  0  0  0
    8.2020   45.6470   50.3850 S   0  0  0  0  0  0  0  0  0  0  0  0
    8.5810   46.3230   51.8690 C   0  0  0  0  0  0  0  0  0  0  0  0
    9.8480   46.5950   52.3790 C   0  0  0  0  0  0  0  0  0  0  0  0
    9.9410   47.1560   53.6610 C   0  0  0  0  0  0  0  0  0  0  0  0
    8.7780   47.4300   54.4000 C   0  0  0  0  0  0  0  0  0  0  0  0
    7.5090   47.1460   53.8670 C   0  0  0  0  0  0  0  0  0  0  0  0
    7.4170   46.5850   52.5830 C   0  0  0  0  0  0  0  0  0  0  0  0
    0.5642   44.3673   55.5500 H   0  0  0  0  0  0  0  0  0  0  0  0
    0.5434   45.9864   54.7724 H   0  0  0  0  0  0  0  0  0  0  0  0
   -0.9384   44.9709   54.7724 H   0  0  0  0  0  0  0  0  0  0  0  0
    0.7638   46.3828   52.8947 H   0  0  0  0  0  0  0  0  0  0  0  0
    1.5581   45.2178   51.7818 H   0  0  0  0  0  0  0  0  0  0  0  0
   -0.2305   45.3830   51.7818 H   0  0  0  0  0  0  0  0  0  0  0  0
    2.2071   43.7518   54.6436 H   0  0  0  0  0  0  0  0  0  0  0  0
    1.7048   42.5736   53.3641 H   0  0  0  0  0  0  0  0  0  0  0  0
    2.3981   44.9480   52.0623 H   0  0  0  0  0  0  0  0  0  0  0  0
    5.6145   43.6128   52.0701 H   0  0  0  0  0  0  0  0  0  0  0  0
    6.4731   41.8948   50.4810 H   0  0  0  0  0  0  0  0  0  0  0  0
    4.8819   40.4770   49.1855 H   0  0  0  0  0  0  0  0  0  0  0  0
    2.4218   40.7718   49.4816 H   0  0  0  0  0  0  0  0  0  0  0  0
    1.5493   42.4819   51.0693 H   0  0  0  0  0  0  0  0  0  0  0  0
    4.3983   44.4171   55.3435 H   0  0  0  0  0  0  0  0  0  0  0  0
    4.3161   46.1751   54.9839 H   0  0  0  0  0  0  0  0  0  0  0  0
    2.8158   45.1872   54.9839 H   0  0  0  0  0  0  0  0  0  0  0  0
    5.7803   45.3212   49.8995 H   0  0  0  0  0  0  0  0  0  0  0  0
   10.7519   46.3756   51.7918 H   0  0  0  0  0  0  0  0  0  0  0  0
   10.9284   47.3824   54.0896 H   0  0  0  0  0  0  0  0  0  0  0  0
    8.8614   47.8706   55.4044 H   0  0  0  0  0  0  0  0  0  0  0  0
    6.5998   47.3603   54.4480 H   0  0  0  0  0  0  0  0  0  0  0  0
  1  2  1  0
  2  3  1  0
  2  4  1  0
  4  5  1  0
  5  6  1  0
  6  7  2  0
  7  8  1  0
  8  9  2  0
  9 10  1  0
 10 11  2  0
  5 12  1  0
 12 13  1  0
 12 14  1  0
 14 15  2  0
 14 16  2  0
 14 17  1  0
 17 18  2  0
 18 19  1  0
 19 20  1  0
 20 21  2  0
 21 22  1  0
 22 23  2  0
 23 24  1  0
 24 25  2  0
 11  6  1  0
 25 17  1  0
 25 20  1  0
  1 26  1  0
  1 27  1  0
  1 28  1  0
  3 29  1  0
  3 30  1  0
  3 31  1  0
  4 32  1  0
  4 33  1  0
  5 34  1  6
  7 35  1  0
  8 36  1  0
  9 37  1  0
 10 38  1  0
 11 39  1  0
 13 40  1  0
 13 41  1  0
 13 42  1  0
 18 43  1  0
 21 44  1  0
 22 45  1  0
 23 46  1  0
 24 47  1  0
M  END
>  <meeko>  (4) 
{"is_sidechain": [false], "free_energy": -8.183, "intermolecular_energy": -11.245, "internal_energy": -0.566}

$$$$
ligand_90_conformer_2_docked
     RDKit          3D

 47 49  0  0  0  0  0  0  0  0999 V2000
    5.4460   44.5890   54.3590 C   0  0  0  0  0  0  0  0  0  0  0  0
    5.2090   46.0030   54.0280 N   0  0  0  0  0  0  0  0  0  0  0  0
    6.4110   46.7890   54.3600 C   0  0  0  0  0  0  0  0  0  0  0  0
    4.8490   46.1440   52.5970 C   0  0  0  0  0  0  0  0  0  0  0  0
    4.7030   44.7530   51.9100 C   0  0  2  0  0  0  0  0  0  0  0  0
    5.8460   44.4400   50.9570 C   0  0  0  0  0  0  0  0  0  0  0  0
    5.9120   43.2260   50.2400 C   0  0  0  0  0  0  0  0  0  0  0  0
    6.9970   42.9600   49.3980 C   0  0  0  0  0  0  0  0  0  0  0  0
    8.0330   43.8860   49.2730 C   0  0  0  0  0  0  0  0  0  0  0  0
    7.9900   45.0820   49.9920 C   0  0  0  0  0  0  0  0  0  0  0  0
    6.9090   45.3550   50.8340 C   0  0  0  0  0  0  0  0  0  0  0  0
    3.4100   44.5320   51.2080 N   0  0  0  0  0  0  0  0  0  0  0  0
    2.4710   45.6630   51.2270 C   0  0  0  0  0  0  0  0  0  0  0  0
    2.6090   43.0540   51.6980 S   0  0  0  0  0  0  0  0  0  0  0  0
    2.3330   42.2100   50.4840 O   0  0  0  0  0  0  0  0  0  0  0  0
    3.5230   42.2660   52.5930 O   0  0  0  0  0  0  0  0  0  0  0  0
    1.0690   43.3750   52.5050 C   0  0  0  0  0  0  0  0  0  0  0  0
   -0.1440   43.0490   51.8950 C   0  0  0  0  0  0  0  0  0  0  0  0
   -1.4180   43.5200   52.8960 S   0  0  0  0  0  0  0  0  0  0  0  0
   -0.4430   44.1350   54.1120 C   0  0  0  0  0  0  0  0  0  0  0  0
   -0.8470   44.7280   55.3050 C   0  0  0  0  0  0  0  0  0  0  0  0
    0.1430   45.1910   56.1840 C   0  0  0  0  0  0  0  0  0  0  0  0
    1.5020   45.0520   55.8550 C   0  0  0  0  0  0  0  0  0  0  0  0
    1.8870   44.4510   54.6450 C   0  0  0  0  0  0  0  0  0  0  0  0
    0.8950   43.9880   53.7660 C   0  0  0  0  0  0  0  0  0  0  0  0
    5.4665   44.4667   55.4520 H   0  0  0  0  0  0  0  0  0  0  0  0
    4.6386   43.9731   53.9362 H   0  0  0  0  0  0  0  0  0  0  0  0
    6.4101   44.2701   53.9362 H   0  0  0  0  0  0  0  0  0  0  0  0
    6.5145   46.8567   55.4530 H   0  0  0  0  0  0  0  0  0  0  0  0
    7.2993   46.2967   53.9374 H   0  0  0  0  0  0  0  0  0  0  0  0
    6.3162   47.8001   53.9374 H   0  0  0  0  0  0  0  0  0  0  0  0
    3.8938   46.6840   52.5194 H   0  0  0  0  0  0  0  0  0  0  0  0
    5.6522   46.6989   52.0901 H   0  0  0  0  0  0  0  0  0  0  0  0
    4.7338   44.0565   52.7609 H   0  0  0  0  0  0  0  0  0  0  0  0
    5.1058   42.4849   50.3439 H   0  0  0  0  0  0  0  0  0  0  0  0
    7.0335   42.0173   48.8324 H   0  0  0  0  0  0  0  0  0  0  0  0
    8.8834   43.6739   48.6082 H   0  0  0  0  0  0  0  0  0  0  0  0
    8.8085   45.8105   49.8954 H   0  0  0  0  0  0  0  0  0  0  0  0
    6.8882   46.2941   51.4065 H   0  0  0  0  0  0  0  0  0  0  0  0
    2.2454   45.9348   52.2687 H   0  0  0  0  0  0  0  0  0  0  0  0
    2.9235   46.5240   50.7132 H   0  0  0  0  0  0  0  0  0  0  0  0
    1.5415   45.3765   50.7132 H   0  0  0  0  0  0  0  0  0  0  0  0
   -0.2521   42.5613   50.9150 H   0  0  0  0  0  0  0  0  0  0  0  0
   -1.9141   44.8307   55.5516 H   0  0  0  0  0  0  0  0  0  0  0  0
   -0.1454   45.6645   57.1341 H   0  0  0  0  0  0  0  0  0  0  0  0
    2.2714   45.4171   56.5512 H   0  0  0  0  0  0  0  0  0  0  0  0
    2.9516   44.3446   54.3896 H   0  0  0  0  0  0  0  0  0  0  0  0
  1  2  1  0
  2  3  1  0
  2  4  1  0
  4  5  1  0
  5  6  1  0
  6  7  2  0
  7  8  1  0
  8  9  2  0
  9 10  1  0
 10 11  2  0
  5 12  1  0
 12 13  1  0
 12 14  1  0
 14 15  2  0
 14 16  2  0
 14 17  1  0
 17 18  2  0
 18 19  1  0
 19 20  1  0
 20 21  2  0
 21 22  1  0
 22 23  2  0
 23 24  1  0
 24 25  2  0
 11  6  1  0
 25 17  1  0
 25 20  1  0
  1 26  1  0
  1 27  1  0
  1 28  1  0
  3 29  1  0
  3 30  1  0
  3 31  1  0
  4 32  1  0
  4 33  1  0
  5 34  1  1
  7 35  1  0
  8 36  1  0
  9 37  1  0
 10 38  1  0
 11 39  1  0
 13 40  1  0
 13 41  1  0
 13 42  1  0
 18 43  1  0
 21 44  1  0
 22 45  1  0
 23 46  1  0
 24 47  1  0
M  END
>  <meeko>  (5) 
{"is_sidechain": [false], "free_energy": -8.054, "intermolecular_energy": -10.725, "internal_energy": -0.912}

$$$$
