MODEL 1
REMARK VINA RESULT:    -8.440      0.000      0.000
REMARK INTER + INTRA:         -10.908
REMARK INTER:                 -10.413
REMARK INTRA:                  -0.494
REMARK UNBOUND:                -0.494
REMARK SMILES Cc1cccc(N(C)C(=O)c2cc(C)n(C(C)(C)C)n2)c1C
REMARK SMILES IDX 9 1 10 2 11 3 13 4 12 5 15 6 20 7 14 8 16 9 17 10 18 11
REMARK SMILES IDX 19 12 7 13 8 14 6 15 5 16 21 17 4 18 2 19 3 20 22 21 1 22
REMARK H PARENT
ROOT
ATOM      1  C   UNL     1       5.319  45.119  53.967  1.00  0.00     0.278 C 
ATOM      2  O   UNL     1       5.833  44.570  54.979  1.00  0.00    -0.267 OA
ENDROOT
BRANCH   1   3
ATOM      3  C   UNL     1       4.207  44.431  53.280  1.00  0.00     0.151 A 
ATOM      4  C   UNL     1       3.040  43.160  51.943  1.00  0.00     0.037 A 
ATOM      5  C   UNL     1       4.332  43.564  52.216  1.00  0.00     0.059 A 
ATOM      6  N   UNL     1       2.194  43.742  52.838  1.00  0.00    -0.264 N 
ATOM      7  N   UNL     1       2.913  44.522  53.635  1.00  0.00    -0.167 NA
ATOM      8  C   UNL     1       2.690  42.181  50.862  1.00  0.00     0.066 C 
BRANCH   6   9
ATOM      9  C   UNL     1       0.712  43.676  52.923  1.00  0.00     0.055 C 
ATOM     10  C   UNL     1       0.228  42.241  53.228  1.00  0.00     0.036 C 
ATOM     11  C   UNL     1       0.098  44.178  51.604  1.00  0.00     0.036 C 
ATOM     12  C   UNL     1       0.212  44.590  54.068  1.00  0.00     0.036 C 
ENDBRANCH   6   9
ENDBRANCH   1   3
BRANCH   1  13
ATOM     13  N   UNL     1       5.811  46.405  53.533  1.00  0.00    -0.310 N 
ATOM     14  C   UNL     1       4.914  47.483  53.115  1.00  0.00     0.153 C 
BRANCH  13  15
ATOM     15  C   UNL     1       7.226  46.644  53.514  1.00  0.00     0.047 A 
ATOM     16  C   UNL     1       7.821  47.265  54.620  1.00  0.00     0.026 A 
ATOM     17  C   UNL     1       8.020  46.250  52.410  1.00  0.00    -0.024 A 
ATOM     18  C   UNL     1       9.195  47.487  54.649  1.00  0.00     0.002 A 
ATOM     19  C   UNL     1       9.425  46.441  52.466  1.00  0.00    -0.046 A 
ATOM     20  C   UNL     1       9.993  47.078  53.583  1.00  0.00     0.004 A 
ATOM     21  C   UNL     1       7.380  45.577  51.217  1.00  0.00     0.047 C 
ATOM     22  C   UNL     1      10.328  46.006  51.341  1.00  0.00     0.044 C 
ENDBRANCH  13  15
ENDBRANCH   1  13
TORSDOF 4
ENDMDL
MODEL 2
REMARK VINA RESULT:    -8.117      0.852      2.016
REMARK INTER + INTRA:         -10.510
REMARK INTER:                 -10.171
REMARK INTRA:                  -0.339
REMARK UNBOUND:                -0.494
REMARK SMILES Cc1cccc(N(C)C(=O)c2cc(C)n(C(C)(C)C)n2)c1C
REMARK SMILES IDX 9 1 10 2 11 3 13 4 12 5 15 6 20 7 14 8 16 9 17 10 18 11
REMARK SMILES IDX 19 12 7 13 8 14 6 15 5 16 21 17 4 18 2 19 3 20 22 21 1 22
REMARK H PARENT
ROOT
ATOM      1  C   UNL     1       5.201  45.459  54.458  1.00  0.00     0.278 C 
ATOM      2  O   UNL     1       5.960  44.748  55.173  1.00  0.00    -0.267 OA
ENDROOT
BRANCH   1   3
ATOM      3  C   UNL     1       3.788  45.054  54.312  1.00  0.00     0.151 A 
ATOM      4  C   UNL     1       1.645  44.783  54.629  1.00  0.00     0.037 A 
ATOM      5  C   UNL     1       2.775  45.332  55.203  1.00  0.00     0.059 A 
ATOM      6  N   UNL     1       1.980  44.234  53.427  1.00  0.00    -0.264 N 
ATOM      7  N   UNL     1       3.285  44.394  53.253  1.00  0.00    -0.167 NA
ATOM      8  C   UNL     1       0.280  44.866  55.245  1.00  0.00     0.066 C 
BRANCH   6   9
ATOM      9  C   UNL     1       1.140  43.474  52.466  1.00  0.00     0.055 C 
ATOM     10  C   UNL     1       0.154  44.401  51.722  1.00  0.00     0.036 C 
ATOM     11  C   UNL     1       0.374  42.369  53.215  1.00  0.00     0.036 C 
ATOM     12  C   UNL     1       2.041  42.802  51.401  1.00  0.00     0.036 C 
ENDBRANCH   6   9
ENDBRANCH   1   3
BRANCH   1  13
ATOM     13  N   UNL     1       5.728  46.649  53.833  1.00  0.00    -0.310 N 
ATOM     14  C   UNL     1       4.862  47.735  53.370  1.00  0.00     0.153 C 
BRANCH  13  15
ATOM     15  C   UNL     1       7.147  46.783  53.663  1.00  0.00     0.047 A 
ATOM     16  C   UNL     1       7.891  47.411  54.670  1.00  0.00     0.026 A 
ATOM     17  C   UNL     1       7.796  46.280  52.511  1.00  0.00    -0.024 A 
ATOM     18  C   UNL     1       9.272  47.534  54.554  1.00  0.00     0.002 A 
ATOM     19  C   UNL     1       9.210  46.371  52.420  1.00  0.00    -0.046 A 
ATOM     20  C   UNL     1       9.929  47.017  53.439  1.00  0.00     0.004 A 
ATOM     21  C   UNL     1       6.995  45.599  51.425  1.00  0.00     0.047 C 
ATOM     22  C   UNL     1       9.963  45.818  51.238  1.00  0.00     0.044 C 
ENDBRANCH  13  15
ENDBRANCH   1  13
TORSDOF 4
ENDMDL
MODEL 3
REMARK VINA RESULT:    -7.951      1.102      2.639
REMARK INTER + INTRA:         -10.305
REMARK INTER:                  -9.874
REMARK INTRA:                  -0.431
REMARK UNBOUND:                -0.494
REMARK SMILES Cc1cccc(N(C)C(=O)c2cc(C)n(C(C)(C)C)n2)c1C
REMARK SMILES IDX 9 1 10 2 11 3 13 4 12 5 15 6 20 7 14 8 16 9 17 10 18 11
REMARK SMILES IDX 19 12 7 13 8 14 6 15 5 16 21 17 4 18 2 19 3 20 22 21 1 22
REMARK H PARENT
ROOT
ATOM      1  C   UNL     1       4.578  45.475  54.463  1.00  0.00     0.278 C 
ATOM      2  O   UNL     1       5.289  44.951  55.364  1.00  0.00    -0.267 OA
ENDROOT
BRANCH   1   3
ATOM      3  C   UNL     1       3.199  44.977  54.275  1.00  0.00     0.151 A 
ATOM      4  C   UNL     1       1.078  44.537  54.544  1.00  0.00     0.037 A 
ATOM      5  C   UNL     1       2.157  45.137  55.161  1.00  0.00     0.059 A 
ATOM      6  N   UNL     1       1.468  44.072  53.323  1.00  0.00    -0.264 N 
ATOM      7  N   UNL     1       2.760  44.334  53.178  1.00  0.00    -0.167 NA
ATOM      8  C   UNL     1      -0.297  44.490  55.140  1.00  0.00     0.066 C 
BRANCH   6   9
ATOM      9  C   UNL     1       0.699  43.301  52.313  1.00  0.00     0.055 C 
ATOM     10  C   UNL     1      -0.064  42.124  52.961  1.00  0.00     0.036 C 
ATOM     11  C   UNL     1       1.654  42.783  51.223  1.00  0.00     0.036 C 
ATOM     12  C   UNL     1      -0.350  44.220  51.640  1.00  0.00     0.036 C 
ENDBRANCH   6   9
ENDBRANCH   1   3
BRANCH   1  13
ATOM     13  N   UNL     1       5.119  46.553  53.671  1.00  0.00    -0.310 N 
ATOM     14  C   UNL     1       4.659  47.935  53.817  1.00  0.00     0.153 C 
BRANCH  13  15
ATOM     15  C   UNL     1       6.149  46.270  52.712  1.00  0.00     0.047 A 
ATOM     16  C   UNL     1       5.789  45.703  51.483  1.00  0.00     0.026 A 
ATOM     17  C   UNL     1       7.505  46.569  52.985  1.00  0.00    -0.024 A 
ATOM     18  C   UNL     1       6.756  45.442  50.516  1.00  0.00     0.002 A 
ATOM     19  C   UNL     1       8.479  46.340  51.978  1.00  0.00    -0.046 A 
ATOM     20  C   UNL     1       8.091  45.759  50.759  1.00  0.00     0.004 A 
ATOM     21  C   UNL     1       7.895  47.185  54.310  1.00  0.00     0.047 C 
ATOM     22  C   UNL     1       9.932  46.676  52.193  1.00  0.00     0.044 C 
ENDBRANCH  13  15
ENDBRANCH   1  13
TORSDOF 4
ENDMDL
MODEL 4
REMARK VINA RESULT:    -7.692      1.684      7.102
REMARK INTER + INTRA:          -9.985
REMARK INTER:                  -9.686
REMARK INTRA:                  -0.300
REMARK UNBOUND:                -0.494
REMARK SMILES Cc1cccc(N(C)C(=O)c2cc(C)n(C(C)(C)C)n2)c1C
REMARK SMILES IDX 9 1 10 2 11 3 13 4 12 5 15 6 20 7 14 8 16 9 17 10 18 11
REMARK SMILES IDX 19 12 7 13 8 14 6 15 5 16 21 17 4 18 2 19 3 20 22 21 1 22
REMARK H PARENT
ROOT
ATOM      1  C   UNL     1       3.908  46.218  53.220  1.00  0.00     0.278 C 
ATOM      2  O   UNL     1       3.077  47.085  52.834  1.00  0.00    -0.267 OA
ENDROOT
BRANCH   1   3
ATOM      3  C   UNL     1       5.225  46.158  52.553  1.00  0.00     0.151 A 
ATOM      4  C   UNL     1       6.862  45.670  51.195  1.00  0.00     0.037 A 
ATOM      5  C   UNL     1       5.547  45.360  51.478  1.00  0.00     0.059 A 
ATOM      6  N   UNL     1       7.283  46.641  52.053  1.00  0.00    -0.264 N 
ATOM      7  N   UNL     1       6.285  46.919  52.881  1.00  0.00    -0.167 NA
ATOM      8  C   UNL     1       7.635  45.052  50.068  1.00  0.00     0.066 C 
BRANCH   6   9
ATOM      9  C   UNL     1       8.625  47.262  52.196  1.00  0.00     0.055 C 
ATOM     10  C   UNL     1       9.752  46.239  51.929  1.00  0.00     0.036 C 
ATOM     11  C   UNL     1       8.769  47.859  53.607  1.00  0.00     0.036 C 
ATOM     12  C   UNL     1       8.784  48.409  51.167  1.00  0.00     0.036 C 
ENDBRANCH   6   9
ENDBRANCH   1   3
BRANCH   1  13
ATOM     13  N   UNL     1       3.559  45.338  54.310  1.00  0.00    -0.310 N 
ATOM     14  C   UNL     1       4.525  44.949  55.339  1.00  0.00     0.153 C 
BRANCH  13  15
ATOM     15  C   UNL     1       2.219  44.830  54.400  1.00  0.00     0.047 A 
ATOM     16  C   UNL     1       1.337  45.409  55.321  1.00  0.00     0.026 A 
ATOM     17  C   UNL     1       1.782  43.772  53.568  1.00  0.00    -0.024 A 
ATOM     18  C   UNL     1       0.023  44.962  55.416  1.00  0.00     0.002 A 
ATOM     19  C   UNL     1       0.428  43.351  53.640  1.00  0.00    -0.046 A 
ATOM     20  C   UNL     1      -0.431  43.942  54.582  1.00  0.00     0.004 A 
ATOM     21  C   UNL     1       2.731  43.148  52.571  1.00  0.00     0.047 C 
ATOM     22  C   UNL     1      -0.109  42.259  52.752  1.00  0.00     0.044 C 
ENDBRANCH  13  15
ENDBRANCH   1  13
TORSDOF 4
ENDMDL
MODEL 5
REMARK VINA RESULT:    -7.508      1.788      7.067
REMARK INTER + INTRA:          -9.759
REMARK INTER:                  -9.548
REMARK INTRA:                  -0.210
REMARK UNBOUND:                -0.494
REMARK SMILES Cc1cccc(N(C)C(=O)c2cc(C)n(C(C)(C)C)n2)c1C
REMARK SMILES IDX 9 1 10 2 11 3 13 4 12 5 15 6 20 7 14 8 16 9 17 10 18 11
REMARK SMILES IDX 19 12 7 13 8 14 6 15 5 16 21 17 4 18 2 19 3 20 22 21 1 22
REMARK H PARENT
ROOT
ATOM      1  C   UNL     1       4.047  44.613  52.532  1.00  0.00     0.278 C 
ATOM      2  O   UNL     1       3.846  43.400  52.813  1.00  0.00    -0.267 OA
ENDROOT
BRANCH   1   3
ATOM      3  C   UNL     1       5.399  45.022  52.099  1.00  0.00     0.151 A 
ATOM      4  C   UNL     1       7.238  45.289  50.953  1.00  0.00     0.037 A 
ATOM      5  C   UNL     1       6.019  44.640  50.929  1.00  0.00     0.059 A 
ATOM      6  N   UNL     1       7.313  46.051  52.081  1.00  0.00    -0.264 N 
ATOM      7  N   UNL     1       6.197  45.870  52.774  1.00  0.00    -0.167 NA
ATOM      8  C   UNL     1       8.252  45.186  49.853  1.00  0.00     0.066 C 
BRANCH   6   9
ATOM      9  C   UNL     1       8.436  46.879  52.592  1.00  0.00     0.055 C 
ATOM     10  C   UNL     1       9.803  46.235  52.270  1.00  0.00     0.036 C 
ATOM     11  C   UNL     1       8.281  47.075  54.110  1.00  0.00     0.036 C 
ATOM     12  C   UNL     1       8.408  48.273  51.918  1.00  0.00     0.036 C 
ENDBRANCH   6   9
ENDBRANCH   1   3
BRANCH   1  13
ATOM     13  N   UNL     1       2.952  45.550  52.617  1.00  0.00    -0.310 N 
ATOM     14  C   UNL     1       2.946  46.811  51.873  1.00  0.00     0.153 C 
BRANCH  13  15
ATOM     15  C   UNL     1       1.825  45.239  53.450  1.00  0.00     0.047 A 
ATOM     16  C   UNL     1       0.667  44.725  52.854  1.00  0.00     0.026 A 
ATOM     17  C   UNL     1       1.878  45.430  54.851  1.00  0.00    -0.024 A 
ATOM     18  C   UNL     1      -0.435  44.384  53.633  1.00  0.00     0.002 A 
ATOM     19  C   UNL     1       0.766  45.040  55.643  1.00  0.00    -0.046 A 
ATOM     20  C   UNL     1      -0.388  44.538  55.017  1.00  0.00     0.004 A 
ATOM     21  C   UNL     1       3.128  45.982  55.497  1.00  0.00     0.047 C 
ATOM     22  C   UNL     1       0.776  45.180  57.143  1.00  0.00     0.044 C 
ENDBRANCH  13  15
ENDBRANCH   1  13
TORSDOF 4
ENDMDL
