ligand_22_conformer_4_docked
     RDKit          3D

 37 40  0  0  0  0  0  0  0  0999 V2000
    2.7460   47.3370   52.7470 O   0  0  0  0  0  0  0  0  0  0  0  0
    3.9030   46.8440   52.8070 C   0  0  0  0  0  0  0  0  0  0  0  0
    4.8560   46.9660   51.7590 N   0  0  0  0  0  0  0  0  0  0  0  0
    6.0460   46.2110   52.1470 C   0  0  2  0  0  0  0  0  0  0  0  0
    7.3130   47.1020   52.1760 C   0  0  0  0  0  0  0  0  0  0  0  0
    8.3420   46.4480   51.2320 C   0  0  0  0  0  0  0  0  0  0  0  0
    7.6270   45.2820   50.6560 C   0  0  0  0  0  0  0  0  0  0  0  0
    8.1280   44.3830   49.7110 C   0  0  0  0  0  0  0  0  0  0  0  0
    7.3070   43.3310   49.2770 C   0  0  0  0  0  0  0  0  0  0  0  0
    6.0050   43.1920   49.7900 C   0  0  0  0  0  0  0  0  0  0  0  0
    5.5210   44.1050   50.7400 C   0  0  0  0  0  0  0  0  0  0  0  0
    6.3570   45.1460   51.1600 C   0  0  0  0  0  0  0  0  0  0  0  0
    5.6740   45.6580   53.4960 C   0  0  0  0  0  0  0  0  0  0  0  0
    6.4030   44.8910   54.1820 O   0  0  0  0  0  0  0  0  0  0  0  0
    4.3800   46.0840   53.9080 N   0  0  0  0  0  0  0  0  0  0  0  0
    3.5760   45.5070   54.9850 C   0  0  0  0  0  0  0  0  0  0  0  0
    2.5020   44.6210   54.4210 C   0  0  0  0  0  0  0  0  0  0  0  0
    2.7960   43.8290   53.3530 N   0  0  0  0  0  0  0  0  0  0  0  0
    1.8700   43.0170   52.7790 C   0  0  0  0  0  0  0  0  0  0  0  0
    0.5670   42.9790   53.2800 C   0  0  0  0  0  0  0  0  0  0  0  0
   -0.6350   41.9360   52.5440 Cl  0  0  0  0  0  0  0  0  0  0  0  0
    0.2320   43.7830   54.3710 C   0  0  0  0  0  0  0  0  0  0  0  0
    1.1950   44.6130   54.9510 C   0  0  0  0  0  0  0  0  0  0  0  0
    0.7390   45.6190   56.3220 Cl  0  0  0  0  0  0  0  0  0  0  0  0
    4.7070   47.4650   50.8530 H   0  0  0  0  0  0  0  0  0  0  0  0
    7.0702   48.1164   51.8265 H   0  0  0  0  0  0  0  0  0  0  0  0
    7.7127   47.1850   53.1974 H   0  0  0  0  0  0  0  0  0  0  0  0
    8.6442   47.1491   50.4401 H   0  0  0  0  0  0  0  0  0  0  0  0
    9.2647   46.1569   51.7552 H   0  0  0  0  0  0  0  0  0  0  0  0
    9.1476   44.4978   49.3144 H   0  0  0  0  0  0  0  0  0  0  0  0
    7.6829   42.6129   48.5333 H   0  0  0  0  0  0  0  0  0  0  0  0
    5.3647   42.3663   49.4462 H   0  0  0  0  0  0  0  0  0  0  0  0
    4.5039   44.0042   51.1467 H   0  0  0  0  0  0  0  0  0  0  0  0
    4.2262   44.9133   55.6443 H   0  0  0  0  0  0  0  0  0  0  0  0
    3.1038   46.3220   55.5532 H   0  0  0  0  0  0  0  0  0  0  0  0
    2.1469   42.3892   51.9192 H   0  0  0  0  0  0  0  0  0  0  0  0
   -0.7911   43.7631   54.7745 H   0  0  0  0  0  0  0  0  0  0  0  0
  1  2  2  0
  2  3  1  0
  4  3  1  6
  4  5  1  0
  5  6  1  0
  6  7  1  0
  7  8  2  0
  8  9  1  0
  9 10  2  0
 10 11  1  0
 11 12  2  0
  4 13  1  0
 13 14  2  0
 13 15  1  0
 15 16  1  0
 16 17  1  0
 17 18  2  0
 18 19  1  0
 19 20  2  0
 20 21  1  0
 20 22  1  0
 22 23  2  0
 23 24  1  0
 15  2  1  0
 23 17  1  0
 12  4  1  0
 12  7  1  0
  3 25  1  0
  5 26  1  0
  5 27  1  0
  6 28  1  0
  6 29  1  0
  8 30  1  0
  9 31  1  0
 10 32  1  0
 11 33  1  0
 16 34  1  0
 16 35  1  0
 19 36  1  0
 22 37  1  0
M  END
>  <meeko>  (1) 
{"is_sidechain": [false], "free_energy": -9.71, "intermolecular_energy": -10.846, "internal_energy": -0.282}

$$$$
ligand_22_conformer_4_docked
     RDKit          3D

 37 40  0  0  0  0  0  0  0  0999 V2000
    6.4510   45.4010   55.3270 O   0  0  0  0  0  0  0  0  0  0  0  0
    5.2620   45.6170   54.9760 C   0  0  0  0  0  0  0  0  0  0  0  0
    4.1770   44.7740   55.3430 N   0  0  0  0  0  0  0  0  0  0  0  0
    2.9710   45.2910   54.6980 C   0  0  2  0  0  0  0  0  0  0  0  0
    1.8660   45.6360   55.7270 C   0  0  0  0  0  0  0  0  0  0  0  0
    0.6140   44.8300   55.3260 C   0  0  0  0  0  0  0  0  0  0  0  0
    1.0510   44.0210   54.1620 C   0  0  0  0  0  0  0  0  0  0  0  0
    0.2800   43.0950   53.4550 C   0  0  0  0  0  0  0  0  0  0  0  0
    0.8600   42.4170   52.3730 C   0  0  0  0  0  0  0  0  0  0  0  0
    2.1950   42.6730   52.0120 C   0  0  0  0  0  0  0  0  0  0  0  0
    2.9530   43.6080   52.7340 C   0  0  0  0  0  0  0  0  0  0  0  0
    2.3540   44.2730   53.8090 C   0  0  0  0  0  0  0  0  0  0  0  0
    3.4770   46.4890   53.9400 C   0  0  0  0  0  0  0  0  0  0  0  0
    2.7690   47.2130   53.1900 O   0  0  0  0  0  0  0  0  0  0  0  0
    4.8680   46.7030   54.1500 N   0  0  0  0  0  0  0  0  0  0  0  0
    5.7470   47.5560   53.3500 C   0  0  0  0  0  0  0  0  0  0  0  0
    6.4360   46.7470   52.2870 C   0  0  0  0  0  0  0  0  0  0  0  0
    5.6820   45.9800   51.4510 N   0  0  0  0  0  0  0  0  0  0  0  0
    6.2380   45.2090   50.4800 C   0  0  0  0  0  0  0  0  0  0  0  0
    7.6240   45.1820   50.3170 C   0  0  0  0  0  0  0  0  0  0  0  0
    8.3500   44.1880   49.0680 Cl  0  0  0  0  0  0  0  0  0  0  0  0
    8.4250   45.9530   51.1610 C   0  0  0  0  0  0  0  0  0  0  0  0
    7.8400   46.7410   52.1550 C   0  0  0  0  0  0  0  0  0  0  0  0
    8.8790   47.6970   53.2070 Cl  0  0  0  0  0  0  0  0  0  0  0  0
    4.2450   43.9120   55.9290 H   0  0  0  0  0  0  0  0  0  0  0  0
    2.1900   45.3530   56.7394 H   0  0  0  0  0  0  0  0  0  0  0  0
    1.6549   46.7155   55.7314 H   0  0  0  0  0  0  0  0  0  0  0  0
    0.2891   44.1797   56.1516 H   0  0  0  0  0  0  0  0  0  0  0  0
   -0.2423   45.4780   55.0875 H   0  0  0  0  0  0  0  0  0  0  0  0
   -0.7640   42.9010   53.7421 H   0  0  0  0  0  0  0  0  0  0  0  0
    0.2693   41.6831   51.8052 H   0  0  0  0  0  0  0  0  0  0  0  0
    2.6459   42.1395   51.1623 H   0  0  0  0  0  0  0  0  0  0  0  0
    3.9982   43.8139   52.4597 H   0  0  0  0  0  0  0  0  0  0  0  0
    5.1491   48.3467   52.8733 H   0  0  0  0  0  0  0  0  0  0  0  0
    6.5073   48.0020   54.0081 H   0  0  0  0  0  0  0  0  0  0  0  0
    5.5954   44.6057   49.8219 H   0  0  0  0  0  0  0  0  0  0  0  0
    9.5186   45.9400   51.0432 H   0  0  0  0  0  0  0  0  0  0  0  0
  1  2  2  0
  2  3  1  0
  4  3  1  1
  4  5  1  0
  5  6  1  0
  6  7  1  0
  7  8  2  0
  8  9  1  0
  9 10  2  0
 10 11  1  0
 11 12  2  0
  4 13  1  0
 13 14  2  0
 13 15  1  0
 15 16  1  0
 16 17  1  0
 17 18  2  0
 18 19  1  0
 19 20  2  0
 20 21  1  0
 20 22  1  0
 22 23  2  0
 23 24  1  0
 15  2  1  0
 23 17  1  0
 12  4  1  0
 12  7  1  0
  3 25  1  0
  5 26  1  0
  5 27  1  0
  6 28  1  0
  6 29  1  0
  8 30  1  0
  9 31  1  0
 10 32  1  0
 11 33  1  0
 16 34  1  0
 16 35  1  0
 19 36  1  0
 22 37  1  0
M  END
>  <meeko>  (2) 
{"is_sidechain": [false], "free_energy": -9.63, "intermolecular_energy": -10.533, "internal_energy": -0.504}

$$$$
ligand_22_conformer_4_docked
     RDKit          3D

 37 40  0  0  0  0  0  0  0  0999 V2000
    1.4700   45.3020   51.1680 O   0  0  0  0  0  0  0  0  0  0  0  0
    2.6530   45.2420   51.5920 C   0  0  0  0  0  0  0  0  0  0  0  0
    3.7530   45.8370   50.9150 N   0  0  0  0  0  0  0  0  0  0  0  0
    4.9690   45.4990   51.6540 C   0  0  2  0  0  0  0  0  0  0  0  0
    5.7370   46.7630   52.1150 C   0  0  0  0  0  0  0  0  0  0  0  0
    7.1650   46.6520   51.5450 C   0  0  0  0  0  0  0  0  0  0  0  0
    7.1460   45.4050   50.7410 C   0  0  0  0  0  0  0  0  0  0  0  0
    8.2040   44.8820   49.9920 C   0  0  0  0  0  0  0  0  0  0  0  0
    8.0080   43.6830   49.2910 C   0  0  0  0  0  0  0  0  0  0  0  0
    6.7660   43.0260   49.3470 C   0  0  0  0  0  0  0  0  0  0  0  0
    5.7170   43.5670   50.1070 C   0  0  0  0  0  0  0  0  0  0  0  0
    5.9340   44.7620   50.8000 C   0  0  0  0  0  0  0  0  0  0  0  0
    4.4530   44.6640   52.7950 C   0  0  0  0  0  0  0  0  0  0  0  0
    5.1790   44.1110   53.6640 O   0  0  0  0  0  0  0  0  0  0  0  0
    3.0340   44.5480   52.7710 N   0  0  0  0  0  0  0  0  0  0  0  0
    2.2290   43.5790   53.5130 C   0  0  0  0  0  0  0  0  0  0  0  0
    1.3190   44.2840   54.4800 C   0  0  0  0  0  0  0  0  0  0  0  0
    1.8690   44.9480   55.5350 N   0  0  0  0  0  0  0  0  0  0  0  0
    1.1080   45.5920   56.4580 C   0  0  0  0  0  0  0  0  0  0  0  0
   -0.2840   45.5840   56.3450 C   0  0  0  0  0  0  0  0  0  0  0  0
   -1.2740   46.4110   57.5330 Cl  0  0  0  0  0  0  0  0  0  0  0  0
   -0.8780   44.9080   55.2780 C   0  0  0  0  0  0  0  0  0  0  0  0
   -0.0830   44.2510   54.3360 C   0  0  0  0  0  0  0  0  0  0  0  0
   -0.8630   43.4030   53.0050 Cl  0  0  0  0  0  0  0  0  0  0  0  0
    3.7010   46.3770   50.0220 H   0  0  0  0  0  0  0  0  0  0  0  0
    5.2444   47.6671   51.7279 H   0  0  0  0  0  0  0  0  0  0  0  0
    5.7556   46.8340   53.2125 H   0  0  0  0  0  0  0  0  0  0  0  0
    7.3997   47.5200   50.9114 H   0  0  0  0  0  0  0  0  0  0  0  0
    7.9308   46.6301   52.3343 H   0  0  0  0  0  0  0  0  0  0  0  0
    9.1729   45.4014   49.9530 H   0  0  0  0  0  0  0  0  0  0  0  0
    8.8282   43.2554   48.6957 H   0  0  0  0  0  0  0  0  0  0  0  0
    6.6162   42.0867   48.7945 H   0  0  0  0  0  0  0  0  0  0  0  0
    4.7420   43.0601   50.1565 H   0  0  0  0  0  0  0  0  0  0  0  0
    1.6228   42.9942   52.8056 H   0  0  0  0  0  0  0  0  0  0  0  0
    2.9006   42.9138   54.0756 H   0  0  0  0  0  0  0  0  0  0  0  0
    1.5885   46.1200   57.2948 H   0  0  0  0  0  0  0  0  0  0  0  0
   -1.9734   44.8926   55.1789 H   0  0  0  0  0  0  0  0  0  0  0  0
  1  2  2  0
  2  3  1  0
  4  3  1  6
  4  5  1  0
  5  6  1  0
  6  7  1  0
  7  8  2  0
  8  9  1  0
  9 10  2  0
 10 11  1  0
 11 12  2  0
  4 13  1  0
 13 14  2  0
 13 15  1  0
 15 16  1  0
 16 17  1  0
 17 18  2  0
 18 19  1  0
 19 20  2  0
 20 21  1  0
 20 22  1  0
 22 23  2  0
 23 24  1  0
 15  2  1  0
 23 17  1  0
 12  4  1  0
 12  7  1  0
  3 25  1  0
  5 26  1  0
  5 27  1  0
  6 28  1  0
  6 29  1  0
  8 30  1  0
  9 31  1  0
 10 32  1  0
 11 33  1  0
 16 34  1  0
 16 35  1  0
 19 36  1  0
 22 37  1  0
M  END
>  <meeko>  (3) 
{"is_sidechain": [false], "free_energy": -9.284, "intermolecular_energy": -10.141, "internal_energy": -0.51}

$$$$
ligand_22_conformer_4_docked
     RDKit          3D

 37 40  0  0  0  0  0  0  0  0999 V2000
    4.0480   42.7370   51.8980 O   0  0  0  0  0  0  0  0  0  0  0  0
    3.4170   43.6360   52.5140 C   0  0  0  0  0  0  0  0  0  0  0  0
    2.4440   43.3590   53.5130 N   0  0  0  0  0  0  0  0  0  0  0  0
    1.8720   44.6330   53.9460 C   0  0  2  0  0  0  0  0  0  0  0  0
    2.0490   44.8600   55.4680 C   0  0  0  0  0  0  0  0  0  0  0  0
    0.6410   45.0900   56.0530 C   0  0  0  0  0  0  0  0  0  0  0  0
   -0.2730   44.9200   54.8960 C   0  0  0  0  0  0  0  0  0  0  0  0
   -1.6680   44.9980   54.9190 C   0  0  0  0  0  0  0  0  0  0  0  0
   -2.3760   44.8110   53.7230 C   0  0  0  0  0  0  0  0  0  0  0  0
   -1.6850   44.5500   52.5260 C   0  0  0  0  0  0  0  0  0  0  0  0
   -0.2830   44.4770   52.5230 C   0  0  0  0  0  0  0  0  0  0  0  0
    0.4030   44.6680   53.7280 C   0  0  0  0  0  0  0  0  0  0  0  0
    2.6050   45.6400   53.1020 C   0  0  0  0  0  0  0  0  0  0  0  0
    2.3840   46.8810   53.1130 O   0  0  0  0  0  0  0  0  0  0  0  0
    3.5750   45.0250   52.2610 N   0  0  0  0  0  0  0  0  0  0  0  0
    4.2360   45.6330   51.1070 C   0  0  0  0  0  0  0  0  0  0  0  0
    5.6680   45.9560   51.4330 C   0  0  0  0  0  0  0  0  0  0  0  0
    5.9320   46.9770   52.2950 N   0  0  0  0  0  0  0  0  0  0  0  0
    7.2000   47.3370   52.6210 C   0  0  0  0  0  0  0  0  0  0  0  0
    8.2850   46.6550   52.0650 C   0  0  0  0  0  0  0  0  0  0  0  0
    9.9260   47.1140   52.4780 Cl  0  0  0  0  0  0  0  0  0  0  0  0
    8.0480   45.6070   51.1740 C   0  0  0  0  0  0  0  0  0  0  0  0
    6.7380   45.2480   50.8490 C   0  0  0  0  0  0  0  0  0  0  0  0
    6.4720   43.9250   49.7180 Cl  0  0  0  0  0  0  0  0  0  0  0  0
    2.1580   42.4090   53.8390 H   0  0  0  0  0  0  0  0  0  0  0  0
    2.5113   43.9758   55.9311 H   0  0  0  0  0  0  0  0  0  0  0  0
    2.7027   45.7227   55.6641 H   0  0  0  0  0  0  0  0  0  0  0  0
    0.4193   44.3498   56.8359 H   0  0  0  0  0  0  0  0  0  0  0  0
    0.5399   46.0785   56.5249 H   0  0  0  0  0  0  0  0  0  0  0  0
   -2.2015   45.2025   55.8589 H   0  0  0  0  0  0  0  0  0  0  0  0
   -3.4745   44.8686   53.7210 H   0  0  0  0  0  0  0  0  0  0  0  0
   -2.2443   44.4028   51.5903 H   0  0  0  0  0  0  0  0  0  0  0  0
    0.2658   44.2736   51.5916 H   0  0  0  0  0  0  0  0  0  0  0  0
    4.2065   44.9308   50.2608 H   0  0  0  0  0  0  0  0  0  0  0  0
    3.7112   46.5635   50.8446 H   0  0  0  0  0  0  0  0  0  0  0  0
    7.3729   48.1659   53.3231 H   0  0  0  0  0  0  0  0  0  0  0  0
    8.8937   45.0634   50.7275 H   0  0  0  0  0  0  0  0  0  0  0  0
  1  2  2  0
  2  3  1  0
  4  3  1  6
  4  5  1  0
  5  6  1  0
  6  7  1  0
  7  8  2  0
  8  9  1  0
  9 10  2  0
 10 11  1  0
 11 12  2  0
  4 13  1  0
 13 14  2  0
 13 15  1  0
 15 16  1  0
 16 17  1  0
 17 18  2  0
 18 19  1  0
 19 20  2  0
 20 21  1  0
 20 22  1  0
 22 23  2  0
 23 24  1  0
 15  2  1  0
 23 17  1  0
 12  4  1  0
 12  7  1  0
  3 25  1  0
  5 26  1  0
  5 27  1  0
  6 28  1  0
  6 29  1  0
  8 30  1  0
  9 31  1  0
 10 32  1  0
 11 33  1  0
 16 34  1  0
 16 35  1  0
 19 36  1  0
 22 37  1  0
M  END
>  <meeko>  (4) 
{"is_sidechain": [false], "free_energy": -8.842, "intermolecular_energy": -9.617, "internal_energy": -0.541}

$$$$
ligand_22_conformer_4_docked
     RDKit          3D

 37 40  0  0  0  0  0  0  0  0999 V2000
    3.4460   42.0510   51.9690 O   0  0  0  0  0  0  0  0  0  0  0  0
    3.9610   43.1510   51.6360 C   0  0  0  0  0  0  0  0  0  0  0  0
    5.3590   43.4030   51.6920 N   0  0  0  0  0  0  0  0  0  0  0  0
    5.5770   44.7970   51.3080 C   0  0  2  0  0  0  0  0  0  0  0  0
    6.5240   44.9200   50.0880 C   0  0  0  0  0  0  0  0  0  0  0  0
    7.6950   45.8260   50.5190 C   0  0  0  0  0  0  0  0  0  0  0  0
    7.4270   46.1220   51.9480 C   0  0  0  0  0  0  0  0  0  0  0  0
    8.2260   46.8850   52.8040 C   0  0  0  0  0  0  0  0  0  0  0  0
    7.8140   47.0640   54.1330 C   0  0  0  0  0  0  0  0  0  0  0  0
    6.6170   46.4830   54.5870 C   0  0  0  0  0  0  0  0  0  0  0  0
    5.8270   45.7210   53.7110 C   0  0  0  0  0  0  0  0  0  0  0  0
    6.2560   45.5570   52.3890 C   0  0  0  0  0  0  0  0  0  0  0  0
    4.1850   45.2980   51.0370 C   0  0  0  0  0  0  0  0  0  0  0  0
    3.8980   46.4840   50.7210 O   0  0  0  0  0  0  0  0  0  0  0  0
    3.2090   44.2740   51.2000 N   0  0  0  0  0  0  0  0  0  0  0  0
    1.7640   44.4610   51.3290 C   0  0  0  0  0  0  0  0  0  0  0  0
    1.3810   44.6060   52.7740 C   0  0  0  0  0  0  0  0  0  0  0  0
    2.0320   45.5260   53.5390 N   0  0  0  0  0  0  0  0  0  0  0  0
    1.7520   45.6990   54.8570 C   0  0  0  0  0  0  0  0  0  0  0  0
    0.7710   44.9170   55.4710 C   0  0  0  0  0  0  0  0  0  0  0  0
    0.4040   45.1310   57.1720 Cl  0  0  0  0  0  0  0  0  0  0  0  0
    0.0890   43.9610   54.7160 C   0  0  0  0  0  0  0  0  0  0  0  0
    0.3880   43.7950   53.3620 C   0  0  0  0  0  0  0  0  0  0  0  0
   -0.4860   42.5770   52.4390 Cl  0  0  0  0  0  0  0  0  0  0  0  0
    6.0910   42.7250   52.0030 H   0  0  0  0  0  0  0  0  0  0  0  0
    6.9001   43.9273   49.7996 H   0  0  0  0  0  0  0  0  0  0  0  0
    5.9962   45.3446   49.2213 H   0  0  0  0  0  0  0  0  0  0  0  0
    8.6553   45.3020   50.4036 H   0  0  0  0  0  0  0  0  0  0  0  0
    7.7657   46.7382   49.9083 H   0  0  0  0  0  0  0  0  0  0  0  0
    9.1612   47.3371   52.4421 H   0  0  0  0  0  0  0  0  0  0  0  0
    8.4295   47.6609   54.8221 H   0  0  0  0  0  0  0  0  0  0  0  0
    6.2987   46.6255   55.6302 H   0  0  0  0  0  0  0  0  0  0  0  0
    4.8892   45.2619   54.0572 H   0  0  0  0  0  0  0  0  0  0  0  0
    1.4658   45.3678   50.7824 H   0  0  0  0  0  0  0  0  0  0  0  0
    1.2520   43.5817   50.9110 H   0  0  0  0  0  0  0  0  0  0  0  0
    2.2978   46.4549   55.4406 H   0  0  0  0  0  0  0  0  0  0  0  0
   -0.6847   43.3378   55.1882 H   0  0  0  0  0  0  0  0  0  0  0  0
  1  2  2  0
  2  3  1  0
  4  3  1  1
  4  5  1  0
  5  6  1  0
  6  7  1  0
  7  8  2  0
  8  9  1  0
  9 10  2  0
 10 11  1  0
 11 12  2  0
  4 13  1  0
 13 14  2  0
 13 15  1  0
 15 16  1  0
 16 17  1  0
 17 18  2  0
 18 19  1  0
 19 20  2  0
 20 21  1  0
 20 22  1  0
 22 23  2  0
 23 24  1  0
 15  2  1  0
 23 17  1  0
 12  4  1  0
 12  7  1  0
  3 25  1  0
  5 26  1  0
  5 27  1  0
  6 28  1  0
  6 29  1  0
  8 30  1  0
  9 31  1  0
 10 32  1  0
 11 33  1  0
 16 34  1  0
 16 35  1  0
 19 36  1  0
 22 37  1  0
M  END
>  <meeko>  (5) 
{"is_sidechain": [false], "free_energy": -8.84, "intermolecular_energy": -9.651, "internal_energy": -0.505}

$$$$
