MODEL 1
REMARK VINA RESULT:    -8.358      0.000      0.000
REMARK INTER + INTRA:         -11.736
REMARK INTER:                 -11.289
REMARK INTRA:                  -0.447
REMARK UNBOUND:                -0.447
REMARK SMILES CN(C)C[C@H](c1ccccc1)N(C)S(=O)(=O)c1csc2ccccc12
REMARK SMILES IDX 5 1 4 2 2 3 1 4 3 5 6 6 7 7 11 8 8 9 10 10 9 11 12 12 13 13
REMARK SMILES IDX 14 14 15 15 16 16 17 17 18 18 25 19 19 20 24 21 20 22 23 23
REMARK SMILES IDX 21 24 22 25
REMARK H PARENT
ROOT
ATOM      1  C   UNL     1       2.912  44.296  53.742  1.00  0.00     0.117 C 
ENDROOT
BRANCH   1   2
ATOM      2  C   UNL     1       2.914  42.978  52.915  1.00  0.00     0.109 C 
BRANCH   2   3
ATOM      3  N   UNL     1       2.998  43.250  51.460  1.00  0.00    -0.307 NA
ATOM      4  C   UNL     1       1.695  43.043  50.800  1.00  0.00     0.105 C 
ATOM      5  C   UNL     1       3.998  42.367  50.834  1.00  0.00     0.105 C 
ENDBRANCH   2   3
ENDBRANCH   1   2
BRANCH   1   6
ATOM      6  C   UNL     1       1.641  44.571  54.541  1.00  0.00    -0.028 A 
ATOM      7  C   UNL     1       0.351  44.183  54.114  1.00  0.00     0.005 A 
ATOM      8  C   UNL     1       1.765  45.243  55.771  1.00  0.00     0.005 A 
ATOM      9  C   UNL     1      -0.771  44.472  54.895  1.00  0.00     0.000 A 
ATOM     10  C   UNL     1       0.638  45.530  56.547  1.00  0.00     0.000 A 
ATOM     11  C   UNL     1      -0.629  45.145  56.109  1.00  0.00     0.000 A 
ENDBRANCH   1   6
BRANCH   1  12
ATOM     12  N   UNL     1       3.289  45.501  52.952  1.00  0.00    -0.192 NA
ATOM     13  C   UNL     1       2.157  46.414  52.727  1.00  0.00     0.125 C 
BRANCH  12  14
ATOM     14  S   UNL     1       4.675  46.402  53.541  1.00  0.00     0.244 S 
ATOM     15  O   UNL     1       4.343  47.868  53.505  1.00  0.00    -0.207 OA
ATOM     16  O   UNL     1       4.966  46.043  54.971  1.00  0.00    -0.207 OA
BRANCH  14  17
ATOM     17  C   UNL     1       6.081  46.175  52.492  1.00  0.00     0.101 A 
ATOM     18  C   UNL     1       5.924  45.609  51.225  1.00  0.00     0.087 A 
ATOM     19  C   UNL     1       7.428  46.496  52.779  1.00  0.00     0.013 A 
ATOM     20  S   UNL     1       7.425  45.493  50.469  1.00  0.00    -0.142 S 
ATOM     21  C   UNL     1       7.959  47.068  53.947  1.00  0.00     0.011 A 
ATOM     22  C   UNL     1       8.289  46.162  51.738  1.00  0.00     0.036 A 
ATOM     23  C   UNL     1       9.344  47.279  54.040  1.00  0.00     0.001 A 
ATOM     24  C   UNL     1       9.665  46.362  51.810  1.00  0.00     0.019 A 
ATOM     25  C   UNL     1      10.194  46.925  52.977  1.00  0.00     0.002 A 
ENDBRANCH  14  17
ENDBRANCH  12  14
ENDBRANCH   1  12
TORSDOF 6
ENDMDL
MODEL 2
REMARK VINA RESULT:    -8.144      2.531      4.658
REMARK INTER + INTRA:         -11.447
REMARK INTER:                 -10.284
REMARK INTRA:                  -1.164
REMARK UNBOUND:                -0.447
REMARK SMILES CN(C)C[C@H](c1ccccc1)N(C)S(=O)(=O)c1csc2ccccc12
REMARK SMILES IDX 5 1 4 2 2 3 1 4 3 5 6 6 7 7 11 8 8 9 10 10 9 11 12 12 13 13
REMARK SMILES IDX 14 14 15 15 16 16 17 17 18 18 25 19 19 20 24 21 20 22 23 23
REMARK SMILES IDX 21 24 22 25
REMARK H PARENT
ROOT
ATOM      1  C   UNL     1       2.381  44.567  54.182  1.00  0.00     0.117 C 
ENDROOT
BRANCH   1   2
ATOM      2  C   UNL     1       1.163  45.517  53.990  1.00  0.00     0.109 C 
BRANCH   2   3
ATOM      3  N   UNL     1       0.328  45.581  55.213  1.00  0.00    -0.307 NA
ATOM      4  C   UNL     1       0.997  44.928  56.353  1.00  0.00     0.105 C 
ATOM      5  C   UNL     1      -0.969  44.923  54.978  1.00  0.00     0.105 C 
ENDBRANCH   2   3
ENDBRANCH   1   2
BRANCH   1   6
ATOM      6  C   UNL     1       3.749  45.245  54.202  1.00  0.00    -0.028 A 
ATOM      7  C   UNL     1       4.961  44.552  54.419  1.00  0.00     0.005 A 
ATOM      8  C   UNL     1       3.801  46.635  53.987  1.00  0.00     0.005 A 
ATOM      9  C   UNL     1       6.178  45.239  54.428  1.00  0.00     0.000 A 
ATOM     10  C   UNL     1       5.022  47.315  53.998  1.00  0.00     0.000 A 
ATOM     11  C   UNL     1       6.210  46.617  54.219  1.00  0.00     0.000 A 
ENDBRANCH   1   6
BRANCH   1  12
ATOM     12  N   UNL     1       2.398  43.414  53.239  1.00  0.00    -0.192 NA
ATOM     13  C   UNL     1       1.274  42.488  53.449  1.00  0.00     0.125 C 
BRANCH  12  14
ATOM     14  S   UNL     1       2.530  43.818  51.536  1.00  0.00     0.244 S 
ATOM     15  O   UNL     1       1.407  43.143  50.797  1.00  0.00    -0.207 OA
ATOM     16  O   UNL     1       2.374  45.299  51.333  1.00  0.00    -0.207 OA
BRANCH  14  17
ATOM     17  C   UNL     1       4.036  43.199  50.845  1.00  0.00     0.101 A 
ATOM     18  C   UNL     1       4.134  41.858  50.470  1.00  0.00     0.087 A 
ATOM     19  C   UNL     1       5.233  43.916  50.614  1.00  0.00     0.013 A 
ATOM     20  S   UNL     1       5.679  41.550  49.873  1.00  0.00    -0.142 S 
ATOM     21  C   UNL     1       5.502  45.271  50.870  1.00  0.00     0.011 A 
ATOM     22  C   UNL     1       6.238  43.116  50.079  1.00  0.00     0.036 A 
ATOM     23  C   UNL     1       6.780  45.781  50.591  1.00  0.00     0.001 A 
ATOM     24  C   UNL     1       7.512  43.601  49.796  1.00  0.00     0.019 A 
ATOM     25  C   UNL     1       7.781  44.950  50.058  1.00  0.00     0.002 A 
ENDBRANCH  14  17
ENDBRANCH  12  14
ENDBRANCH   1  12
TORSDOF 6
ENDMDL
MODEL 3
REMARK VINA RESULT:    -8.111      1.252      3.517
REMARK INTER + INTRA:         -11.402
REMARK INTER:                 -11.706
REMARK INTRA:                   0.304
REMARK UNBOUND:                -0.447
REMARK SMILES CN(C)C[C@H](c1ccccc1)N(C)S(=O)(=O)c1csc2ccccc12
REMARK SMILES IDX 5 1 4 2 2 3 1 4 3 5 6 6 7 7 11 8 8 9 10 10 9 11 12 12 13 13
REMARK SMILES IDX 14 14 15 15 16 16 17 17 18 18 25 19 19 20 24 21 20 22 23 23
REMARK SMILES IDX 21 24 22 25
REMARK H PARENT
ROOT
ATOM      1  C   UNL     1       2.550  45.232  54.091  1.00  0.00     0.117 C 
ENDROOT
BRANCH   1   2
ATOM      2  C   UNL     1       1.836  44.736  55.382  1.00  0.00     0.109 C 
BRANCH   2   3
ATOM      3  N   UNL     1       0.485  45.329  55.517  1.00  0.00    -0.307 NA
ATOM      4  C   UNL     1       0.157  45.600  56.929  1.00  0.00     0.105 C 
ATOM      5  C   UNL     1      -0.529  44.417  54.957  1.00  0.00     0.105 C 
ENDBRANCH   2   3
ENDBRANCH   1   2
BRANCH   1   6
ATOM      6  C   UNL     1       2.697  44.196  52.980  1.00  0.00    -0.028 A 
ATOM      7  C   UNL     1       3.752  43.258  52.922  1.00  0.00     0.005 A 
ATOM      8  C   UNL     1       1.724  44.174  51.963  1.00  0.00     0.005 A 
ATOM      9  C   UNL     1       3.827  42.339  51.871  1.00  0.00     0.000 A 
ATOM     10  C   UNL     1       1.806  43.253  50.915  1.00  0.00     0.000 A 
ATOM     11  C   UNL     1       2.857  42.336  50.869  1.00  0.00     0.000 A 
ENDBRANCH   1   6
BRANCH   1  12
ATOM     12  N   UNL     1       3.858  45.896  54.346  1.00  0.00    -0.192 NA
ATOM     13  C   UNL     1       4.946  44.938  54.597  1.00  0.00     0.125 C 
BRANCH  12  14
ATOM     14  S   UNL     1       4.365  47.076  53.149  1.00  0.00     0.244 S 
ATOM     15  O   UNL     1       3.246  47.268  52.164  1.00  0.00    -0.207 OA
ATOM     16  O   UNL     1       4.625  48.406  53.800  1.00  0.00    -0.207 OA
BRANCH  14  17
ATOM     17  C   UNL     1       5.759  46.496  52.227  1.00  0.00     0.101 A 
ATOM     18  C   UNL     1       5.565  45.727  51.078  1.00  0.00     0.087 A 
ATOM     19  C   UNL     1       7.127  46.706  52.515  1.00  0.00     0.013 A 
ATOM     20  S   UNL     1       7.060  45.299  50.427  1.00  0.00    -0.142 S 
ATOM     21  C   UNL     1       7.695  47.420  53.584  1.00  0.00     0.011 A 
ATOM     22  C   UNL     1       7.967  46.087  51.594  1.00  0.00     0.036 A 
ATOM     23  C   UNL     1       9.092  47.482  53.703  1.00  0.00     0.001 A 
ATOM     24  C   UNL     1       9.355  46.136  51.694  1.00  0.00     0.019 A 
ATOM     25  C   UNL     1       9.919  46.841  52.764  1.00  0.00     0.002 A 
ENDBRANCH  14  17
ENDBRANCH  12  14
ENDBRANCH   1  12
TORSDOF 6
ENDMDL
MODEL 4
REMARK VINA RESULT:    -7.729      2.270      7.218
REMARK INTER + INTRA:         -10.887
REMARK INTER:                 -10.673
REMARK INTRA:                  -0.215
REMARK UNBOUND:                -0.447
REMARK SMILES CN(C)C[C@H](c1ccccc1)N(C)S(=O)(=O)c1csc2ccccc12
REMARK SMILES IDX 5 1 4 2 2 3 1 4 3 5 6 6 7 7 11 8 8 9 10 10 9 11 12 12 13 13
REMARK SMILES IDX 14 14 15 15 16 16 17 17 18 18 25 19 19 20 24 21 20 22 23 23
REMARK SMILES IDX 21 24 22 25
REMARK H PARENT
ROOT
ATOM      1  C   UNL     1       5.769  45.527  52.470  1.00  0.00     0.117 C 
ENDROOT
BRANCH   1   2
ATOM      2  C   UNL     1       5.955  47.054  52.236  1.00  0.00     0.109 C 
BRANCH   2   3
ATOM      3  N   UNL     1       7.039  47.605  53.083  1.00  0.00    -0.307 NA
ATOM      4  C   UNL     1       8.082  48.251  52.266  1.00  0.00     0.105 C 
ATOM      5  C   UNL     1       7.654  46.531  53.884  1.00  0.00     0.105 C 
ENDBRANCH   2   3
ENDBRANCH   1   2
BRANCH   1   6
ATOM      6  C   UNL     1       6.166  44.627  51.303  1.00  0.00    -0.028 A 
ATOM      7  C   UNL     1       5.505  43.419  50.988  1.00  0.00     0.005 A 
ATOM      8  C   UNL     1       7.246  45.030  50.496  1.00  0.00     0.005 A 
ATOM      9  C   UNL     1       5.926  42.642  49.905  1.00  0.00     0.000 A 
ATOM     10  C   UNL     1       7.663  44.248  49.415  1.00  0.00     0.000 A 
ATOM     11  C   UNL     1       7.003  43.055  49.120  1.00  0.00     0.000 A 
ENDBRANCH   1   6
BRANCH   1  12
ATOM     12  N   UNL     1       4.412  45.156  52.961  1.00  0.00    -0.192 NA
ATOM     13  C   UNL     1       4.274  45.296  54.419  1.00  0.00     0.125 C 
BRANCH  12  14
ATOM     14  S   UNL     1       3.064  45.939  52.155  1.00  0.00     0.244 S 
ATOM     15  O   UNL     1       2.735  47.205  52.896  1.00  0.00    -0.207 OA
ATOM     16  O   UNL     1       3.442  46.323  50.753  1.00  0.00    -0.207 OA
BRANCH  14  17
ATOM     17  C   UNL     1       1.612  44.930  52.207  1.00  0.00     0.101 A 
ATOM     18  C   UNL     1       1.200  44.238  51.066  1.00  0.00     0.087 A 
ATOM     19  C   UNL     1       0.749  44.721  53.309  1.00  0.00     0.013 A 
ATOM     20  S   UNL     1      -0.215  43.388  51.402  1.00  0.00    -0.142 S 
ATOM     21  C   UNL     1       0.845  45.254  54.605  1.00  0.00     0.011 A 
ATOM     22  C   UNL     1      -0.319  43.885  52.998  1.00  0.00     0.036 A 
ATOM     23  C   UNL     1      -0.145  44.941  55.550  1.00  0.00     0.001 A 
ATOM     24  C   UNL     1      -1.310  43.562  53.920  1.00  0.00     0.019 A 
ATOM     25  C   UNL     1      -1.218  44.100  55.210  1.00  0.00     0.002 A 
ENDBRANCH  14  17
ENDBRANCH  12  14
ENDBRANCH   1  12
TORSDOF 6
ENDMDL
MODEL 5
REMARK VINA RESULT:    -7.201      2.123      7.001
REMARK INTER + INTRA:         -10.173
REMARK INTER:                  -9.583
REMARK INTRA:                  -0.591
REMARK UNBOUND:                -0.447
REMARK SMILES CN(C)C[C@H](c1ccccc1)N(C)S(=O)(=O)c1csc2ccccc12
REMARK SMILES IDX 5 1 4 2 2 3 1 4 3 5 6 6 7 7 11 8 8 9 10 10 9 11 12 12 13 13
REMARK SMILES IDX 14 14 15 15 16 16 17 17 18 18 25 19 19 20 24 21 20 22 23 23
REMARK SMILES IDX 21 24 22 25
REMARK H PARENT
ROOT
ATOM      1  C   UNL     1       6.135  44.950  52.277  1.00  0.00     0.117 C 
ENDROOT
BRANCH   1   2
ATOM      2  C   UNL     1       6.517  46.340  51.693  1.00  0.00     0.109 C 
BRANCH   2   3
ATOM      3  N   UNL     1       7.802  46.828  52.249  1.00  0.00    -0.307 NA
ATOM      4  C   UNL     1       7.935  48.288  52.088  1.00  0.00     0.105 C 
ATOM      5  C   UNL     1       8.932  46.167  51.573  1.00  0.00     0.105 C 
ENDBRANCH   2   3
ENDBRANCH   1   2
BRANCH   1   6
ATOM      6  C   UNL     1       5.834  43.863  51.249  1.00  0.00    -0.028 A 
ATOM      7  C   UNL     1       6.541  43.719  50.035  1.00  0.00     0.005 A 
ATOM      8  C   UNL     1       4.798  42.953  51.533  1.00  0.00     0.005 A 
ATOM      9  C   UNL     1       6.209  42.701  49.137  1.00  0.00     0.000 A 
ATOM     10  C   UNL     1       4.470  41.938  50.630  1.00  0.00     0.000 A 
ATOM     11  C   UNL     1       5.175  41.812  49.432  1.00  0.00     0.000 A 
ENDBRANCH   1   6
BRANCH   1  12
ATOM     12  N   UNL     1       5.049  45.004  53.294  1.00  0.00    -0.192 NA
ATOM     13  C   UNL     1       5.549  45.275  54.652  1.00  0.00     0.125 C 
BRANCH  12  14
ATOM     14  S   UNL     1       3.707  46.075  52.928  1.00  0.00     0.244 S 
ATOM     15  O   UNL     1       3.889  47.351  53.702  1.00  0.00    -0.207 OA
ATOM     16  O   UNL     1       3.704  46.432  51.468  1.00  0.00    -0.207 OA
BRANCH  14  17
ATOM     17  C   UNL     1       2.168  45.379  53.452  1.00  0.00     0.101 A 
ATOM     18  C   UNL     1       1.709  45.597  54.753  1.00  0.00     0.087 A 
ATOM     19  C   UNL     1       1.287  44.573  52.694  1.00  0.00     0.013 A 
ATOM     20  S   UNL     1       0.243  44.798  54.975  1.00  0.00    -0.142 S 
ATOM     21  C   UNL     1       1.422  44.146  51.363  1.00  0.00     0.011 A 
ATOM     22  C   UNL     1       0.172  44.171  53.424  1.00  0.00     0.036 A 
ATOM     23  C   UNL     1       0.437  43.316  50.805  1.00  0.00     0.001 A 
ATOM     24  C   UNL     1      -0.816  43.348  52.890  1.00  0.00     0.019 A 
ATOM     25  C   UNL     1      -0.676  42.917  51.565  1.00  0.00     0.002 A 
ENDBRANCH  14  17
ENDBRANCH  12  14
ENDBRANCH   1  12
TORSDOF 6
ENDMDL
