ligand_73_conformer_3_docked
     RDKit          3D

 41 43  0  0  0  0  0  0  0  0999 V2000
    2.5770   42.8680   52.5250 C   0  0  0  0  0  0  0  0  0  0  0  0
    3.3010   44.1140   52.7530 N   0  0  0  0  0  0  0  0  0  0  0  0
    4.6160   44.2170   52.6550 N   0  0  0  0  0  0  0  0  0  0  0  0
    4.9540   45.4920   52.9480 C   0  0  0  0  0  0  0  0  0  0  0  0
    6.3520   45.9890   52.9550 C   0  0  0  0  0  0  0  0  0  0  0  0
    7.1350   45.9870   51.7840 C   0  0  0  0  0  0  0  0  0  0  0  0
    8.4510   46.4580   51.8120 C   0  0  0  0  0  0  0  0  0  0  0  0
    9.0010   46.9360   53.0030 C   0  0  0  0  0  0  0  0  0  0  0  0
   10.2770   47.3920   53.0260 F   0  0  0  0  0  0  0  0  0  0  0  0
    8.2360   46.9420   54.1710 C   0  0  0  0  0  0  0  0  0  0  0  0
    6.9190   46.4720   54.1500 C   0  0  0  0  0  0  0  0  0  0  0  0
    3.8100   46.2150   53.2480 C   0  0  0  0  0  0  0  0  0  0  0  0
    2.7770   45.3080   53.1060 C   0  0  0  0  0  0  0  0  0  0  0  0
    1.3520   45.5730   53.3840 C   0  0  0  0  0  0  0  0  0  0  0  0
    0.5970   45.9230   52.4370 O   0  0  0  0  0  0  0  0  0  0  0  0
    0.8050   45.4190   54.7050 N   0  0  0  0  0  0  0  0  0  0  0  0
    1.6310   45.1320   55.8670 C   0  0  0  0  0  0  0  0  0  0  0  0
    0.6650   44.6520   56.9450 C   0  0  0  0  0  0  0  0  0  0  0  0
   -0.7220   45.1720   56.5120 C   0  0  1  0  0  0  0  0  0  0  0  0
   -1.7740   44.2190   56.9180 C   0  0  0  0  0  0  0  0  0  0  0  0
   -2.5980   43.4710   57.2360 N   0  0  0  0  0  0  0  0  0  0  0  0
   -1.0340   46.5440   57.0940 C   0  0  0  0  0  0  0  0  0  0  0  0
   -1.9550   47.4160   56.4350 N   0  0  0  0  0  0  0  0  0  0  0  0
   -0.4460   46.9520   58.1320 O   0  0  0  0  0  0  0  0  0  0  0  0
   -0.6170   45.2650   54.9820 C   0  0  0  0  0  0  0  0  0  0  0  0
    2.3136   42.4147   53.4921 H   0  0  0  0  0  0  0  0  0  0  0  0
    1.6592   43.0762   51.9555 H   0  0  0  0  0  0  0  0  0  0  0  0
    3.2123   42.1737   51.9555 H   0  0  0  0  0  0  0  0  0  0  0  0
    6.7084   45.6126   50.8418 H   0  0  0  0  0  0  0  0  0  0  0  0
    9.0551   46.4520   50.8927 H   0  0  0  0  0  0  0  0  0  0  0  0
    8.6701   47.3171   55.1095 H   0  0  0  0  0  0  0  0  0  0  0  0
    6.3217   46.4797   55.0737 H   0  0  0  0  0  0  0  0  0  0  0  0
    3.7400   47.2746   53.5351 H   0  0  0  0  0  0  0  0  0  0  0  0
    2.3656   44.3477   55.6322 H   0  0  0  0  0  0  0  0  0  0  0  0
    2.1990   46.0160   56.1923 H   0  0  0  0  0  0  0  0  0  0  0  0
    0.6644   43.5534   56.9999 H   0  0  0  0  0  0  0  0  0  0  0  0
    0.9477   45.0210   57.9419 H   0  0  0  0  0  0  0  0  0  0  0  0
   -2.4200   47.1340   55.5450 H   0  0  0  0  0  0  0  0  0  0  0  0
   -2.1580   48.3610   56.8300 H   0  0  0  0  0  0  0  0  0  0  0  0
   -1.0044   44.3488   54.5124 H   0  0  0  0  0  0  0  0  0  0  0  0
   -1.2070   46.1016   54.5797 H   0  0  0  0  0  0  0  0  0  0  0  0
  1  2  1  0
  2  3  1  0
  3  4  2  0
  4  5  1  0
  5  6  2  0
  6  7  1  0
  7  8  2  0
  8  9  1  0
  8 10  1  0
 10 11  2  0
  4 12  1  0
 12 13  2  0
 13 14  1  0
 14 15  2  0
 14 16  1  0
 16 17  1  0
 17 18  1  0
 18 19  1  0
 19 20  1  6
 20 21  3  0
 19 22  1  0
 22 23  1  0
 22 24  2  0
 19 25  1  0
 13  2  1  0
 25 16  1  0
 11  5  1  0
  1 26  1  0
  1 27  1  0
  1 28  1  0
  6 29  1  0
  7 30  1  0
 10 31  1  0
 11 32  1  0
 12 33  1  0
 17 34  1  0
 17 35  1  0
 18 36  1  0
 18 37  1  0
 23 38  1  0
 23 39  1  0
 25 40  1  0
 25 41  1  0
M  END
>  <meeko>  (1) 
{"is_sidechain": [false], "free_energy": -8.349, "intermolecular_energy": -10.302, "internal_energy": -0.733}

$$$$
ligand_73_conformer_3_docked
     RDKit          3D

 41 43  0  0  0  0  0  0  0  0999 V2000
    3.4460   45.7840   55.4640 C   0  0  0  0  0  0  0  0  0  0  0  0
    4.2910   45.9710   54.2900 N   0  0  0  0  0  0  0  0  0  0  0  0
    5.6120   45.9430   54.3350 N   0  0  0  0  0  0  0  0  0  0  0  0
    6.0750   46.1710   53.0870 C   0  0  0  0  0  0  0  0  0  0  0  0
    7.5170   46.2260   52.7430 C   0  0  0  0  0  0  0  0  0  0  0  0
    8.4760   46.6530   53.6800 C   0  0  0  0  0  0  0  0  0  0  0  0
    9.8310   46.7000   53.3360 C   0  0  0  0  0  0  0  0  0  0  0  0
   10.2430   46.3240   52.0560 C   0  0  0  0  0  0  0  0  0  0  0  0
   11.5570   46.3700   51.7260 F   0  0  0  0  0  0  0  0  0  0  0  0
    9.3010   45.9000   51.1170 C   0  0  0  0  0  0  0  0  0  0  0  0
    7.9450   45.8510   51.4550 C   0  0  0  0  0  0  0  0  0  0  0  0
    5.0040   46.3550   52.2250 C   0  0  0  0  0  0  0  0  0  0  0  0
    3.8860   46.2140   53.0240 C   0  0  0  0  0  0  0  0  0  0  0  0
    2.4860   46.3900   52.5890 C   0  0  0  0  0  0  0  0  0  0  0  0
    2.0590   47.5510   52.3490 O   0  0  0  0  0  0  0  0  0  0  0  0
    1.6100   45.2630   52.4120 N   0  0  0  0  0  0  0  0  0  0  0  0
    1.4880   44.5540   51.1480 C   0  0  0  0  0  0  0  0  0  0  0  0
    0.2090   43.7330   51.2630 C   0  0  0  0  0  0  0  0  0  0  0  0
   -0.0690   43.6180   52.7760 C   0  0  1  0  0  0  0  0  0  0  0  0
   -1.5240   43.5920   53.0260 C   0  0  0  0  0  0  0  0  0  0  0  0
   -2.6650   43.5730   53.2230 N   0  0  0  0  0  0  0  0  0  0  0  0
    0.5680   42.3790   53.3890 C   0  0  0  0  0  0  0  0  0  0  0  0
    1.9910   42.2390   53.4210 N   0  0  0  0  0  0  0  0  0  0  0  0
   -0.1450   41.4360   53.8270 O   0  0  0  0  0  0  0  0  0  0  0  0
    0.5740   44.8830   53.3640 C   0  0  0  0  0  0  0  0  0  0  0  0
    4.0486   45.9174   56.3745 H   0  0  0  0  0  0  0  0  0  0  0  0
    2.6320   46.5237   55.4515 H   0  0  0  0  0  0  0  0  0  0  0  0
    3.0201   44.7699   55.4515 H   0  0  0  0  0  0  0  0  0  0  0  0
    8.1580   46.9518   54.6897 H   0  0  0  0  0  0  0  0  0  0  0  0
   10.5737   47.0339   54.0756 H   0  0  0  0  0  0  0  0  0  0  0  0
    9.6262   45.6037   50.1088 H   0  0  0  0  0  0  0  0  0  0  0  0
    7.2078   45.5173   50.7098 H   0  0  0  0  0  0  0  0  0  0  0  0
    5.0375   46.5661   51.1460 H   0  0  0  0  0  0  0  0  0  0  0  0
    1.4136   45.2665   50.3133 H   0  0  0  0  0  0  0  0  0  0  0  0
    2.3641   43.9189   50.9503 H   0  0  0  0  0  0  0  0  0  0  0  0
   -0.6232   44.2439   50.7565 H   0  0  0  0  0  0  0  0  0  0  0  0
    0.3128   42.7454   50.7898 H   0  0  0  0  0  0  0  0  0  0  0  0
    2.6130   42.9740   53.0190 H   0  0  0  0  0  0  0  0  0  0  0  0
    2.4250   41.3830   53.8320 H   0  0  0  0  0  0  0  0  0  0  0  0
   -0.1724   45.6850   53.4624 H   0  0  0  0  0  0  0  0  0  0  0  0
    0.9842   44.7064   54.3692 H   0  0  0  0  0  0  0  0  0  0  0  0
  1  2  1  0
  2  3  1  0
  3  4  2  0
  4  5  1  0
  5  6  2  0
  6  7  1  0
  7  8  2  0
  8  9  1  0
  8 10  1  0
 10 11  2  0
  4 12  1  0
 12 13  2  0
 13 14  1  0
 14 15  2  0
 14 16  1  0
 16 17  1  0
 17 18  1  0
 18 19  1  0
 19 20  1  6
 20 21  3  0
 19 22  1  0
 22 23  1  0
 22 24  2  0
 19 25  1  0
 13  2  1  0
 25 16  1  0
 11  5  1  0
  1 26  1  0
  1 27  1  0
  1 28  1  0
  6 29  1  0
  7 30  1  0
 10 31  1  0
 11 32  1  0
 12 33  1  0
 17 34  1  0
 17 35  1  0
 18 36  1  0
 18 37  1  0
 23 38  1  0
 23 39  1  0
 25 40  1  0
 25 41  1  0
M  END
>  <meeko>  (2) 
{"is_sidechain": [false], "free_energy": -8.244, "intermolecular_energy": -10.477, "internal_energy": -0.428}

$$$$
ligand_73_conformer_3_docked
     RDKit          3D

 41 43  0  0  0  0  0  0  0  0999 V2000
    4.0130   41.4300   50.4630 C   0  0  0  0  0  0  0  0  0  0  0  0
    4.2030   42.7700   51.0070 N   0  0  0  0  0  0  0  0  0  0  0  0
    5.3940   43.2930   51.2470 N   0  0  0  0  0  0  0  0  0  0  0  0
    5.2080   44.5270   51.7630 C   0  0  0  0  0  0  0  0  0  0  0  0
    6.3190   45.4220   52.1700 C   0  0  0  0  0  0  0  0  0  0  0  0
    6.5100   45.7830   53.5180 C   0  0  0  0  0  0  0  0  0  0  0  0
    7.5620   46.6300   53.8820 C   0  0  0  0  0  0  0  0  0  0  0  0
    8.4330   47.1260   52.9090 C   0  0  0  0  0  0  0  0  0  0  0  0
    9.4510   47.9460   53.2660 F   0  0  0  0  0  0  0  0  0  0  0  0
    8.2520   46.7770   51.5690 C   0  0  0  0  0  0  0  0  0  0  0  0
    7.2030   45.9310   51.1990 C   0  0  0  0  0  0  0  0  0  0  0  0
    3.8490   44.7880   51.8560 C   0  0  0  0  0  0  0  0  0  0  0  0
    3.2420   43.6510   51.3600 C   0  0  0  0  0  0  0  0  0  0  0  0
    1.7870   43.4020   51.3100 C   0  0  0  0  0  0  0  0  0  0  0  0
    1.2640   43.0450   50.2200 O   0  0  0  0  0  0  0  0  0  0  0  0
    0.9630   43.5380   52.4810 N   0  0  0  0  0  0  0  0  0  0  0  0
    0.6750   42.4240   53.3700 C   0  0  0  0  0  0  0  0  0  0  0  0
   -0.5150   42.8720   54.2110 C   0  0  0  0  0  0  0  0  0  0  0  0
   -0.5300   44.4110   54.1140 C   0  0  1  0  0  0  0  0  0  0  0  0
   -1.9180   44.9120   54.1540 C   0  0  0  0  0  0  0  0  0  0  0  0
   -3.0060   45.3050   54.1850 N   0  0  0  0  0  0  0  0  0  0  0  0
    0.2750   45.0690   55.2260 C   0  0  0  0  0  0  0  0  0  0  0  0
   -0.3400   46.0210   56.0980 N   0  0  0  0  0  0  0  0  0  0  0  0
    1.5060   44.8290   55.3600 O   0  0  0  0  0  0  0  0  0  0  0  0
    0.1260   44.6980   52.7540 C   0  0  0  0  0  0  0  0  0  0  0  0
    3.9109   40.7102   51.2885 H   0  0  0  0  0  0  0  0  0  0  0  0
    3.1031   41.4107   49.8451 H   0  0  0  0  0  0  0  0  0  0  0  0
    4.8816   41.1585   49.8451 H   0  0  0  0  0  0  0  0  0  0  0  0
    5.8276   45.3964   54.2893 H   0  0  0  0  0  0  0  0  0  0  0  0
    7.7038   46.9062   54.9373 H   0  0  0  0  0  0  0  0  0  0  0  0
    8.9369   47.1690   50.8027 H   0  0  0  0  0  0  0  0  0  0  0  0
    7.0668   45.6606   50.1415 H   0  0  0  0  0  0  0  0  0  0  0  0
    3.3632   45.6975   52.2392 H   0  0  0  0  0  0  0  0  0  0  0  0
    0.4192   41.5252   52.7898 H   0  0  0  0  0  0  0  0  0  0  0  0
    1.5425   42.1655   53.9950 H   0  0  0  0  0  0  0  0  0  0  0  0
   -1.4493   42.4521   53.8100 H   0  0  0  0  0  0  0  0  0  0  0  0
   -0.4315   42.5289   55.2528 H   0  0  0  0  0  0  0  0  0  0  0  0
   -1.3430   46.2850   55.9830 H   0  0  0  0  0  0  0  0  0  0  0  0
    0.2170   46.4790   56.8520 H   0  0  0  0  0  0  0  0  0  0  0  0
   -0.6400   44.8133   51.9730 H   0  0  0  0  0  0  0  0  0  0  0  0
    0.7085   45.6310   52.7674 H   0  0  0  0  0  0  0  0  0  0  0  0
  1  2  1  0
  2  3  1  0
  3  4  2  0
  4  5  1  0
  5  6  2  0
  6  7  1  0
  7  8  2  0
  8  9  1  0
  8 10  1  0
 10 11  2  0
  4 12  1  0
 12 13  2  0
 13 14  1  0
 14 15  2  0
 14 16  1  0
 16 17  1  0
 17 18  1  0
 18 19  1  0
 19 20  1  6
 20 21  3  0
 19 22  1  0
 22 23  1  0
 22 24  2  0
 19 25  1  0
 13  2  1  0
 25 16  1  0
 11  5  1  0
  1 26  1  0
  1 27  1  0
  1 28  1  0
  6 29  1  0
  7 30  1  0
 10 31  1  0
 11 32  1  0
 12 33  1  0
 17 34  1  0
 17 35  1  0
 18 36  1  0
 18 37  1  0
 23 38  1  0
 23 39  1  0
 25 40  1  0
 25 41  1  0
M  END
>  <meeko>  (3) 
{"is_sidechain": [false], "free_energy": -7.975, "intermolecular_energy": -10.011, "internal_energy": -0.562}

$$$$
ligand_73_conformer_3_docked
     RDKit          3D

 41 43  0  0  0  0  0  0  0  0999 V2000
    2.6920   47.1670   52.3130 C   0  0  0  0  0  0  0  0  0  0  0  0
    3.9530   46.6880   52.8660 N   0  0  0  0  0  0  0  0  0  0  0  0
    5.1230   46.8820   52.2790 N   0  0  0  0  0  0  0  0  0  0  0  0
    6.0710   46.2950   53.0410 C   0  0  0  0  0  0  0  0  0  0  0  0
    7.5150   46.2930   52.6980 C   0  0  0  0  0  0  0  0  0  0  0  0
    8.4870   46.7170   53.6230 C   0  0  0  0  0  0  0  0  0  0  0  0
    9.8420   46.7100   53.2800 C   0  0  0  0  0  0  0  0  0  0  0  0
   10.2430   46.2790   52.0140 C   0  0  0  0  0  0  0  0  0  0  0  0
   11.5590   46.2720   51.6840 F   0  0  0  0  0  0  0  0  0  0  0  0
    9.2890   45.8570   51.0860 C   0  0  0  0  0  0  0  0  0  0  0  0
    7.9320   45.8630   51.4230 C   0  0  0  0  0  0  0  0  0  0  0  0
    5.4750   45.7040   54.1450 C   0  0  0  0  0  0  0  0  0  0  0  0
    4.1290   45.9800   54.0030 C   0  0  0  0  0  0  0  0  0  0  0  0
    3.0520   45.5050   54.8950 C   0  0  0  0  0  0  0  0  0  0  0  0
    3.2100   45.5820   56.1430 O   0  0  0  0  0  0  0  0  0  0  0  0
    1.8220   44.9790   54.3680 N   0  0  0  0  0  0  0  0  0  0  0  0
    0.5170   45.4300   54.8250 C   0  0  0  0  0  0  0  0  0  0  0  0
   -0.4710   44.3740   54.3400 C   0  0  0  0  0  0  0  0  0  0  0  0
    0.2490   43.6350   53.1940 C   0  0  1  0  0  0  0  0  0  0  0  0
   -0.1560   42.2150   53.1680 C   0  0  0  0  0  0  0  0  0  0  0  0
   -0.4730   41.1020   53.1480 N   0  0  0  0  0  0  0  0  0  0  0  0
   -0.0290   44.2620   51.8350 C   0  0  0  0  0  0  0  0  0  0  0  0
    0.9840   44.2770   50.8250 N   0  0  0  0  0  0  0  0  0  0  0  0
   -1.1320   44.8260   51.5980 O   0  0  0  0  0  0  0  0  0  0  0  0
    1.7390   43.7820   53.5420 C   0  0  0  0  0  0  0  0  0  0  0  0
    2.0071   47.4272   53.1335 H   0  0  0  0  0  0  0  0  0  0  0  0
    2.8777   48.0572   51.6941 H   0  0  0  0  0  0  0  0  0  0  0  0
    2.2398   46.3780   51.6941 H   0  0  0  0  0  0  0  0  0  0  0  0
    8.1784   47.0563   54.6228 H   0  0  0  0  0  0  0  0  0  0  0  0
   10.5943   47.0449   54.0093 H   0  0  0  0  0  0  0  0  0  0  0  0
    9.6055   45.5193   50.0881 H   0  0  0  0  0  0  0  0  0  0  0  0
    7.1850   45.5297   50.6875 H   0  0  0  0  0  0  0  0  0  0  0  0
    5.9648   45.1411   54.9533 H   0  0  0  0  0  0  0  0  0  0  0  0
    0.4970   45.5001   55.9226 H   0  0  0  0  0  0  0  0  0  0  0  0
    0.2708   46.4290   54.4359 H   0  0  0  0  0  0  0  0  0  0  0  0
   -0.7178   43.6755   55.1532 H   0  0  0  0  0  0  0  0  0  0  0  0
   -1.4181   44.8228   54.0059 H   0  0  0  0  0  0  0  0  0  0  0  0
    1.9270   43.8680   51.0030 H   0  0  0  0  0  0  0  0  0  0  0  0
    0.7940   44.7180   49.8980 H   0  0  0  0  0  0  0  0  0  0  0  0
    2.0933   42.9028   54.1002 H   0  0  0  0  0  0  0  0  0  0  0  0
    2.3658   43.8597   52.6414 H   0  0  0  0  0  0  0  0  0  0  0  0
  1  2  1  0
  2  3  1  0
  3  4  2  0
  4  5  1  0
  5  6  2  0
  6  7  1  0
  7  8  2  0
  8  9  1  0
  8 10  1  0
 10 11  2  0
  4 12  1  0
 12 13  2  0
 13 14  1  0
 14 15  2  0
 14 16  1  0
 16 17  1  0
 17 18  1  0
 18 19  1  0
 19 20  1  6
 20 21  3  0
 19 22  1  0
 22 23  1  0
 22 24  2  0
 19 25  1  0
 13  2  1  0
 25 16  1  0
 11  5  1  0
  1 26  1  0
  1 27  1  0
  1 28  1  0
  6 29  1  0
  7 30  1  0
 10 31  1  0
 11 32  1  0
 12 33  1  0
 17 34  1  0
 17 35  1  0
 18 36  1  0
 18 37  1  0
 23 38  1  0
 23 39  1  0
 25 40  1  0
 25 41  1  0
M  END
>  <meeko>  (4) 
{"is_sidechain": [false], "free_energy": -7.885, "intermolecular_energy": -9.92, "internal_energy": -0.541}

$$$$
ligand_73_conformer_3_docked
     RDKit          3D

 41 43  0  0  0  0  0  0  0  0999 V2000
    2.0350   46.4260   52.3170 C   0  0  0  0  0  0  0  0  0  0  0  0
    3.3600   45.8140   52.3410 N   0  0  0  0  0  0  0  0  0  0  0  0
    4.4710   46.5000   52.5540 N   0  0  0  0  0  0  0  0  0  0  0  0
    5.5080   45.6370   52.4890 C   0  0  0  0  0  0  0  0  0  0  0  0
    6.9240   46.0420   52.6670 C   0  0  0  0  0  0  0  0  0  0  0  0
    7.8260   46.0430   51.5850 C   0  0  0  0  0  0  0  0  0  0  0  0
    9.1570   46.4250   51.7730 C   0  0  0  0  0  0  0  0  0  0  0  0
    9.6050   46.8090   53.0390 C   0  0  0  0  0  0  0  0  0  0  0  0
   10.8970   47.1800   53.2180 F   0  0  0  0  0  0  0  0  0  0  0  0
    8.7220   46.8100   54.1200 C   0  0  0  0  0  0  0  0  0  0  0  0
    7.3890   46.4290   53.9380 C   0  0  0  0  0  0  0  0  0  0  0  0
    5.0320   44.3630   52.2180 C   0  0  0  0  0  0  0  0  0  0  0  0
    3.6610   44.5140   52.1370 C   0  0  0  0  0  0  0  0  0  0  0  0
    2.6950   43.4510   51.7960 C   0  0  0  0  0  0  0  0  0  0  0  0
    3.0490   42.5270   51.0150 O   0  0  0  0  0  0  0  0  0  0  0  0
    1.3690   43.4370   52.3530 N   0  0  0  0  0  0  0  0  0  0  0  0
    1.1070   43.1120   53.7460 C   0  0  0  0  0  0  0  0  0  0  0  0
   -0.3870   42.8150   53.8220 C   0  0  0  0  0  0  0  0  0  0  0  0
   -0.9990   43.4790   52.5720 C   0  0  1  0  0  0  0  0  0  0  0  0
   -2.1460   42.6880   52.0830 C   0  0  0  0  0  0  0  0  0  0  0  0
   -3.0450   42.0670   51.7000 N   0  0  0  0  0  0  0  0  0  0  0  0
   -1.4510   44.9090   52.8380 C   0  0  0  0  0  0  0  0  0  0  0  0
   -1.7840   45.3270   54.1640 N   0  0  0  0  0  0  0  0  0  0  0  0
   -1.5930   45.7270   51.8890 O   0  0  0  0  0  0  0  0  0  0  0  0
    0.1520   43.4760   51.5540 C   0  0  0  0  0  0  0  0  0  0  0  0
    1.6867   46.5869   53.3479 H   0  0  0  0  0  0  0  0  0  0  0  0
    2.0865   47.3915   51.7925 H   0  0  0  0  0  0  0  0  0  0  0  0
    1.3333   45.7608   51.7925 H   0  0  0  0  0  0  0  0  0  0  0  0
    7.4803   45.7410   50.5853 H   0  0  0  0  0  0  0  0  0  0  0  0
    9.8537   46.4233   50.9218 H   0  0  0  0  0  0  0  0  0  0  0  0
    9.0755   47.1111   55.1172 H   0  0  0  0  0  0  0  0  0  0  0  0
    6.6986   46.4317   54.7944 H   0  0  0  0  0  0  0  0  0  0  0  0
    5.6156   43.4387   52.0950 H   0  0  0  0  0  0  0  0  0  0  0  0
    1.6900   42.2306   54.0512 H   0  0  0  0  0  0  0  0  0  0  0  0
    1.3939   43.9346   54.4175 H   0  0  0  0  0  0  0  0  0  0  0  0
   -0.5651   41.7296   53.8077 H   0  0  0  0  0  0  0  0  0  0  0  0
   -0.8344   43.1992   54.7506 H   0  0  0  0  0  0  0  0  0  0  0  0
   -1.7310   44.6610   54.9670 H   0  0  0  0  0  0  0  0  0  0  0  0
   -2.1050   46.3040   54.3420 H   0  0  0  0  0  0  0  0  0  0  0  0
    0.0892   42.5912   50.9035 H   0  0  0  0  0  0  0  0  0  0  0  0
    0.1207   44.3567   50.8957 H   0  0  0  0  0  0  0  0  0  0  0  0
  1  2  1  0
  2  3  1  0
  3  4  2  0
  4  5  1  0
  5  6  2  0
  6  7  1  0
  7  8  2  0
  8  9  1  0
  8 10  1  0
 10 11  2  0
  4 12  1  0
 12 13  2  0
 13 14  1  0
 14 15  2  0
 14 16  1  0
 16 17  1  0
 17 18  1  0
 18 19  1  0
 19 20  1  6
 20 21  3  0
 19 22  1  0
 22 23  1  0
 22 24  2  0
 19 25  1  0
 13  2  1  0
 25 16  1  0
 11  5  1  0
  1 26  1  0
  1 27  1  0
  1 28  1  0
  6 29  1  0
  7 30  1  0
 10 31  1  0
 11 32  1  0
 12 33  1  0
 17 34  1  0
 17 35  1  0
 18 36  1  0
 18 37  1  0
 23 38  1  0
 23 39  1  0
 25 40  1  0
 25 41  1  0
M  END
>  <meeko>  (5) 
{"is_sidechain": [false], "free_energy": -7.791, "intermolecular_energy": -9.937, "internal_energy": -0.408}

$$$$
