ligand_61_conformer_2_docked
     RDKit          3D

 41 44  0  0  0  0  0  0  0  0999 V2000
    1.2870   44.9700   52.3070 O   0  0  0  0  0  0  0  0  0  0  0  0
    1.5290   44.2890   53.3410 C   0  0  0  0  0  0  0  0  0  0  0  0
    2.5710   43.2980   53.3120 N   0  0  0  0  0  0  0  0  0  0  0  0
    3.6580   43.3120   52.3710 C   0  0  0  0  0  0  0  0  0  0  0  0
    3.7250   42.3210   51.3820 C   0  0  0  0  0  0  0  0  0  0  0  0
    4.7850   42.3010   50.4720 C   0  0  0  0  0  0  0  0  0  0  0  0
    5.7910   43.2670   50.5460 C   0  0  0  0  0  0  0  0  0  0  0  0
    5.7490   44.2620   51.5360 C   0  0  0  0  0  0  0  0  0  0  0  0
    6.8270   45.2750   51.6140 C   0  0  0  0  0  0  0  0  0  0  0  0
    7.5500   45.7090   50.5560 N   0  0  0  0  0  0  0  0  0  0  0  0
    8.4190   46.6320   50.9480 N   0  0  0  0  0  0  0  0  0  0  0  0
    8.2580   46.7830   52.2740 C   0  0  0  0  0  0  0  0  0  0  0  0
    7.2590   45.9720   52.7280 C   0  0  0  0  0  0  0  0  0  0  0  0
    6.8350   45.9750   54.1660 C   0  0  0  0  0  0  0  0  0  0  0  0
    7.2030   47.2010   54.7900 O   0  0  0  0  0  0  0  0  0  0  0  0
    8.5950   47.4590   54.6260 C   0  0  0  0  0  0  0  0  0  0  0  0
    8.9380   47.7800   53.1540 C   0  0  0  0  0  0  0  0  0  0  0  0
    4.6870   44.2670   52.4570 C   0  0  0  0  0  0  0  0  0  0  0  0
    0.7020   44.4880   54.5560 C   0  0  0  0  0  0  0  0  0  0  0  0
   -0.6520   44.1110   54.5670 C   0  0  0  0  0  0  0  0  0  0  0  0
   -1.4100   44.3010   55.6790 N   0  0  0  0  0  0  0  0  0  0  0  0
   -0.9010   44.8600   56.8070 C   0  0  0  0  0  0  0  0  0  0  0  0
    0.4350   45.2630   56.8460 C   0  0  0  0  0  0  0  0  0  0  0  0
    0.9500   45.8450   58.0030 O   0  0  0  0  0  0  0  0  0  0  0  0
    1.2380   45.0780   55.7140 C   0  0  0  0  0  0  0  0  0  0  0  0
    2.4710   42.4620   53.9320 H   0  0  0  0  0  0  0  0  0  0  0  0
    2.9384   41.5545   51.3219 H   0  0  0  0  0  0  0  0  0  0  0  0
    4.8273   41.5228   49.6957 H   0  0  0  0  0  0  0  0  0  0  0  0
    6.6211   43.2483   49.8245 H   0  0  0  0  0  0  0  0  0  0  0  0
    7.4630   45.3790   49.5700 H   0  0  0  0  0  0  0  0  0  0  0  0
    5.7432   45.8533   54.2221 H   0  0  0  0  0  0  0  0  0  0  0  0
    7.3353   45.1454   54.6870 H   0  0  0  0  0  0  0  0  0  0  0  0
    8.8768   48.3166   55.2546 H   0  0  0  0  0  0  0  0  0  0  0  0
    9.1520   46.5582   54.9233 H   0  0  0  0  0  0  0  0  0  0  0  0
    8.5880   48.7927   52.9050 H   0  0  0  0  0  0  0  0  0  0  0  0
   10.0266   47.7304   53.0041 H   0  0  0  0  0  0  0  0  0  0  0  0
    4.6605   45.0256   53.2531 H   0  0  0  0  0  0  0  0  0  0  0  0
   -1.1010   43.6594   53.6701 H   0  0  0  0  0  0  0  0  0  0  0  0
   -1.5419   44.9954   57.6907 H   0  0  0  0  0  0  0  0  0  0  0  0
    1.7980   45.4990   58.4380 H   0  0  0  0  0  0  0  0  0  0  0  0
    2.2911   45.3952   55.7308 H   0  0  0  0  0  0  0  0  0  0  0  0
  1  2  2  0
  2  3  1  0
  3  4  1  0
  4  5  2  0
  5  6  1  0
  6  7  2  0
  7  8  1  0
  8  9  1  0
  9 10  1  0
 10 11  1  0
 11 12  2  0
 12 13  1  0
 13 14  1  0
 14 15  1  0
 15 16  1  0
 16 17  1  0
  8 18  2  0
  2 19  1  0
 19 20  2  0
 20 21  1  0
 21 22  2  0
 22 23  1  0
 23 24  1  0
 23 25  2  0
 18  4  1  0
 25 19  1  0
 13  9  2  0
 17 12  1  0
  3 26  1  0
  5 27  1  0
  6 28  1  0
  7 29  1  0
 10 30  1  0
 14 31  1  0
 14 32  1  0
 16 33  1  0
 16 34  1  0
 17 35  1  0
 17 36  1  0
 18 37  1  0
 20 38  1  0
 22 39  1  0
 24 40  1  0
 25 41  1  0
M  END
>  <meeko>  (1) 
{"is_sidechain": [false], "free_energy": -9.337, "intermolecular_energy": -11.247, "internal_energy": -0.377}

$$$$
ligand_61_conformer_2_docked
     RDKit          3D

 41 44  0  0  0  0  0  0  0  0999 V2000
    1.2890   43.3520   53.9090 O   0  0  0  0  0  0  0  0  0  0  0  0
    0.6520   44.3910   54.2350 C   0  0  0  0  0  0  0  0  0  0  0  0
    1.2770   45.6800   54.1000 N   0  0  0  0  0  0  0  0  0  0  0  0
    2.3810   45.9410   53.2180 C   0  0  0  0  0  0  0  0  0  0  0  0
    2.1800   45.8990   51.8310 C   0  0  0  0  0  0  0  0  0  0  0  0
    3.2430   46.1250   50.9550 C   0  0  0  0  0  0  0  0  0  0  0  0
    4.5200   46.3890   51.4550 C   0  0  0  0  0  0  0  0  0  0  0  0
    4.7470   46.4250   52.8400 C   0  0  0  0  0  0  0  0  0  0  0  0
    6.1070   46.6930   53.3620 C   0  0  0  0  0  0  0  0  0  0  0  0
    6.3790   47.0760   54.6310 N   0  0  0  0  0  0  0  0  0  0  0  0
    7.6900   47.2130   54.7920 N   0  0  0  0  0  0  0  0  0  0  0  0
    8.2620   46.9230   53.6100 C   0  0  0  0  0  0  0  0  0  0  0  0
    7.3130   46.5710   52.6950 C   0  0  0  0  0  0  0  0  0  0  0  0
    7.6790   46.1510   51.3030 C   0  0  0  0  0  0  0  0  0  0  0  0
    9.0270   45.6910   51.2610 O   0  0  0  0  0  0  0  0  0  0  0  0
    9.9150   46.6700   51.7930 C   0  0  0  0  0  0  0  0  0  0  0  0
    9.7230   46.8370   53.3170 C   0  0  0  0  0  0  0  0  0  0  0  0
    3.6740   46.1820   53.7160 C   0  0  0  0  0  0  0  0  0  0  0  0
   -0.7140   44.2630   54.7980 C   0  0  0  0  0  0  0  0  0  0  0  0
   -1.7800   43.8300   53.9900 C   0  0  0  0  0  0  0  0  0  0  0  0
   -3.0330   43.7200   54.5070 N   0  0  0  0  0  0  0  0  0  0  0  0
   -3.3040   44.0240   55.8020 C   0  0  0  0  0  0  0  0  0  0  0  0
   -2.2840   44.4690   56.6440 C   0  0  0  0  0  0  0  0  0  0  0  0
   -2.5690   44.7890   57.9700 O   0  0  0  0  0  0  0  0  0  0  0  0
   -0.9840   44.5910   56.1370 C   0  0  0  0  0  0  0  0  0  0  0  0
    0.9880   46.4370   54.7610 H   0  0  0  0  0  0  0  0  0  0  0  0
    1.1778   45.6865   51.4305 H   0  0  0  0  0  0  0  0  0  0  0  0
    3.0745   46.0951   49.8684 H   0  0  0  0  0  0  0  0  0  0  0  0
    5.3529   46.5698   50.7596 H   0  0  0  0  0  0  0  0  0  0  0  0
    5.6830   47.2540   55.3870 H   0  0  0  0  0  0  0  0  0  0  0  0
    7.0091   45.3400   50.9812 H   0  0  0  0  0  0  0  0  0  0  0  0
    7.5760   47.0156   50.6308 H   0  0  0  0  0  0  0  0  0  0  0  0
   10.9512   46.3585   51.5949 H   0  0  0  0  0  0  0  0  0  0  0  0
    9.6976   47.6337   51.3092 H   0  0  0  0  0  0  0  0  0  0  0  0
   10.1551   45.9719   53.8413 H   0  0  0  0  0  0  0  0  0  0  0  0
   10.2279   47.7522   53.6597 H   0  0  0  0  0  0  0  0  0  0  0  0
    3.8479   46.1804   54.8022 H   0  0  0  0  0  0  0  0  0  0  0  0
   -1.5996   43.5789   52.9343 H   0  0  0  0  0  0  0  0  0  0  0  0
   -4.3287   43.9194   56.1880 H   0  0  0  0  0  0  0  0  0  0  0  0
   -1.9820   44.4660   58.7310 H   0  0  0  0  0  0  0  0  0  0  0  0
   -0.1720   44.9447   56.7893 H   0  0  0  0  0  0  0  0  0  0  0  0
  1  2  2  0
  2  3  1  0
  3  4  1  0
  4  5  2  0
  5  6  1  0
  6  7  2  0
  7  8  1  0
  8  9  1  0
  9 10  1  0
 10 11  1  0
 11 12  2  0
 12 13  1  0
 13 14  1  0
 14 15  1  0
 15 16  1  0
 16 17  1  0
  8 18  2  0
  2 19  1  0
 19 20  2  0
 20 21  1  0
 21 22  2  0
 22 23  1  0
 23 24  1  0
 23 25  2  0
 18  4  1  0
 25 19  1  0
 13  9  2  0
 17 12  1  0
  3 26  1  0
  5 27  1  0
  6 28  1  0
  7 29  1  0
 10 30  1  0
 14 31  1  0
 14 32  1  0
 16 33  1  0
 16 34  1  0
 17 35  1  0
 17 36  1  0
 18 37  1  0
 20 38  1  0
 22 39  1  0
 24 40  1  0
 25 41  1  0
M  END
>  <meeko>  (2) 
{"is_sidechain": [false], "free_energy": -9.007, "intermolecular_energy": -11.012, "internal_energy": -0.215}

$$$$
ligand_61_conformer_2_docked
     RDKit          3D

 41 44  0  0  0  0  0  0  0  0999 V2000
    1.9800   43.4410   53.7380 O   0  0  0  0  0  0  0  0  0  0  0  0
    1.6750   44.5290   54.3000 C   0  0  0  0  0  0  0  0  0  0  0  0
    2.4750   45.7000   54.0630 N   0  0  0  0  0  0  0  0  0  0  0  0
    3.3160   45.8700   52.9090 C   0  0  0  0  0  0  0  0  0  0  0  0
    2.7360   45.9050   51.6330 C   0  0  0  0  0  0  0  0  0  0  0  0
    3.5360   46.0450   50.4970 C   0  0  0  0  0  0  0  0  0  0  0  0
    4.9240   46.1430   50.6240 C   0  0  0  0  0  0  0  0  0  0  0  0
    5.5270   46.0980   51.8910 C   0  0  0  0  0  0  0  0  0  0  0  0
    6.9990   46.1910   52.0150 C   0  0  0  0  0  0  0  0  0  0  0  0
    7.8740   45.8400   51.0430 N   0  0  0  0  0  0  0  0  0  0  0  0
    9.1170   46.0620   51.4510 N   0  0  0  0  0  0  0  0  0  0  0  0
    9.0380   46.5500   52.7010 C   0  0  0  0  0  0  0  0  0  0  0  0
    7.7350   46.6690   53.0850 C   0  0  0  0  0  0  0  0  0  0  0  0
    7.3550   47.2350   54.4200 C   0  0  0  0  0  0  0  0  0  0  0  0
    8.4070   48.0480   54.9320 O   0  0  0  0  0  0  0  0  0  0  0  0
    9.6360   47.3280   54.9680 C   0  0  0  0  0  0  0  0  0  0  0  0
   10.1660   47.0470   53.5440 C   0  0  0  0  0  0  0  0  0  0  0  0
    4.7150   45.9440   53.0290 C   0  0  0  0  0  0  0  0  0  0  0  0
    0.5240   44.5690   55.2340 C   0  0  0  0  0  0  0  0  0  0  0  0
    0.6600   45.1450   56.5090 C   0  0  0  0  0  0  0  0  0  0  0  0
   -0.3940   45.1750   57.3670 N   0  0  0  0  0  0  0  0  0  0  0  0
   -1.6030   44.6520   57.0350 C   0  0  0  0  0  0  0  0  0  0  0  0
   -1.7890   44.0580   55.7870 C   0  0  0  0  0  0  0  0  0  0  0  0
   -3.0290   43.5150   55.4550 O   0  0  0  0  0  0  0  0  0  0  0  0
   -0.7190   44.0150   54.8840 C   0  0  0  0  0  0  0  0  0  0  0  0
    2.5360   46.4150   54.8230 H   0  0  0  0  0  0  0  0  0  0  0  0
    1.6444   45.8217   51.5261 H   0  0  0  0  0  0  0  0  0  0  0  0
    3.0724   46.0782   49.5000 H   0  0  0  0  0  0  0  0  0  0  0  0
    5.5483   46.2562   49.7254 H   0  0  0  0  0  0  0  0  0  0  0  0
    7.6340   45.4450   50.1080 H   0  0  0  0  0  0  0  0  0  0  0  0
    6.4463   47.8450   54.3098 H   0  0  0  0  0  0  0  0  0  0  0  0
    7.1713   46.4065   55.1198 H   0  0  0  0  0  0  0  0  0  0  0  0
   10.3823   47.9208   55.5172 H   0  0  0  0  0  0  0  0  0  0  0  0
    9.4585   46.3644   55.4680 H   0  0  0  0  0  0  0  0  0  0  0  0
   10.5713   47.9733   53.1107 H   0  0  0  0  0  0  0  0  0  0  0  0
   10.9642   46.2912   53.5843 H   0  0  0  0  0  0  0  0  0  0  0  0
    5.1796   45.8807   54.0241 H   0  0  0  0  0  0  0  0  0  0  0  0
    1.6256   45.5743   56.8145 H   0  0  0  0  0  0  0  0  0  0  0  0
   -2.4364   44.6971   57.7515 H   0  0  0  0  0  0  0  0  0  0  0  0
   -3.3870   42.6890   55.9210 H   0  0  0  0  0  0  0  0  0  0  0  0
   -0.8522   43.5461   53.8979 H   0  0  0  0  0  0  0  0  0  0  0  0
  1  2  2  0
  2  3  1  0
  3  4  1  0
  4  5  2  0
  5  6  1  0
  6  7  2  0
  7  8  1  0
  8  9  1  0
  9 10  1  0
 10 11  1  0
 11 12  2  0
 12 13  1  0
 13 14  1  0
 14 15  1  0
 15 16  1  0
 16 17  1  0
  8 18  2  0
  2 19  1  0
 19 20  2  0
 20 21  1  0
 21 22  2  0
 22 23  1  0
 23 24  1  0
 23 25  2  0
 18  4  1  0
 25 19  1  0
 13  9  2  0
 17 12  1  0
  3 26  1  0
  5 27  1  0
  6 28  1  0
  7 29  1  0
 10 30  1  0
 14 31  1  0
 14 32  1  0
 16 33  1  0
 16 34  1  0
 17 35  1  0
 17 36  1  0
 18 37  1  0
 20 38  1  0
 22 39  1  0
 24 40  1  0
 25 41  1  0
M  END
>  <meeko>  (3) 
{"is_sidechain": [false], "free_energy": -8.763, "intermolecular_energy": -10.654, "internal_energy": -0.279}

$$$$
ligand_61_conformer_2_docked
     RDKit          3D

 41 44  0  0  0  0  0  0  0  0999 V2000
    5.7870   46.2430   51.1200 O   0  0  0  0  0  0  0  0  0  0  0  0
    6.3580   45.7270   52.1200 C   0  0  0  0  0  0  0  0  0  0  0  0
    5.7300   44.6360   52.8140 N   0  0  0  0  0  0  0  0  0  0  0  0
    4.7370   43.7810   52.2210 C   0  0  0  0  0  0  0  0  0  0  0  0
    5.0690   43.0210   51.0910 C   0  0  0  0  0  0  0  0  0  0  0  0
    4.1140   42.2030   50.4840 C   0  0  0  0  0  0  0  0  0  0  0  0
    2.8160   42.1410   50.9960 C   0  0  0  0  0  0  0  0  0  0  0  0
    2.4580   42.9030   52.1200 C   0  0  0  0  0  0  0  0  0  0  0  0
    1.0760   42.8410   52.6480 C   0  0  0  0  0  0  0  0  0  0  0  0
    0.6330   41.9130   53.5280 N   0  0  0  0  0  0  0  0  0  0  0  0
   -0.6400   42.1410   53.8240 N   0  0  0  0  0  0  0  0  0  0  0  0
   -1.0200   43.2210   53.1180 C   0  0  0  0  0  0  0  0  0  0  0  0
    0.0270   43.7040   52.3880 C   0  0  0  0  0  0  0  0  0  0  0  0
   -0.1040   44.9360   51.5430 C   0  0  0  0  0  0  0  0  0  0  0  0
   -1.1850   45.7410   52.0040 O   0  0  0  0  0  0  0  0  0  0  0  0
   -2.3920   44.9850   52.0670 C   0  0  0  0  0  0  0  0  0  0  0  0
   -2.3340   43.9250   53.1900 C   0  0  0  0  0  0  0  0  0  0  0  0
    3.4220   43.7350   52.7170 C   0  0  0  0  0  0  0  0  0  0  0  0
    7.6470   46.2890   52.5920 C   0  0  0  0  0  0  0  0  0  0  0  0
    8.8390   46.0240   51.8960 C   0  0  0  0  0  0  0  0  0  0  0  0
   10.0200   46.5340   52.3340 N   0  0  0  0  0  0  0  0  0  0  0  0
   10.0990   47.3030   53.4500 C   0  0  0  0  0  0  0  0  0  0  0  0
    8.9470   47.5880   54.1850 C   0  0  0  0  0  0  0  0  0  0  0  0
    9.0340   48.3710   55.3350 O   0  0  0  0  0  0  0  0  0  0  0  0
    7.7170   47.0760   53.7540 C   0  0  0  0  0  0  0  0  0  0  0  0
    5.9210   44.5290   53.8360 H   0  0  0  0  0  0  0  0  0  0  0  0
    6.0881   43.0693   50.6799 H   0  0  0  0  0  0  0  0  0  0  0  0
    4.3845   41.6060   49.6006 H   0  0  0  0  0  0  0  0  0  0  0  0
    2.0695   41.4913   50.5158 H   0  0  0  0  0  0  0  0  0  0  0  0
    1.1850   41.1220   53.9240 H   0  0  0  0  0  0  0  0  0  0  0  0
    0.8293   45.5154   51.5996 H   0  0  0  0  0  0  0  0  0  0  0  0
   -0.3001   44.6364   50.5029 H   0  0  0  0  0  0  0  0  0  0  0  0
   -3.2323   45.6676   52.2619 H   0  0  0  0  0  0  0  0  0  0  0  0
   -2.5263   44.4657   51.1067 H   0  0  0  0  0  0  0  0  0  0  0  0
   -2.4370   44.4168   54.1685 H   0  0  0  0  0  0  0  0  0  0  0  0
   -3.1533   43.2018   53.0646 H   0  0  0  0  0  0  0  0  0  0  0  0
    3.1444   44.3564   53.5812 H   0  0  0  0  0  0  0  0  0  0  0  0
    8.8158   45.3996   50.9907 H   0  0  0  0  0  0  0  0  0  0  0  0
   11.0713   47.7017   53.7752 H   0  0  0  0  0  0  0  0  0  0  0  0
    8.8540   47.9840   56.2540 H   0  0  0  0  0  0  0  0  0  0  0  0
    6.8028   47.2905   54.3268 H   0  0  0  0  0  0  0  0  0  0  0  0
  1  2  2  0
  2  3  1  0
  3  4  1  0
  4  5  2  0
  5  6  1  0
  6  7  2  0
  7  8  1  0
  8  9  1  0
  9 10  1  0
 10 11  1  0
 11 12  2  0
 12 13  1  0
 13 14  1  0
 14 15  1  0
 15 16  1  0
 16 17  1  0
  8 18  2  0
  2 19  1  0
 19 20  2  0
 20 21  1  0
 21 22  2  0
 22 23  1  0
 23 24  1  0
 23 25  2  0
 18  4  1  0
 25 19  1  0
 13  9  2  0
 17 12  1  0
  3 26  1  0
  5 27  1  0
  6 28  1  0
  7 29  1  0
 10 30  1  0
 14 31  1  0
 14 32  1  0
 16 33  1  0
 16 34  1  0
 17 35  1  0
 17 36  1  0
 18 37  1  0
 20 38  1  0
 22 39  1  0
 24 40  1  0
 25 41  1  0
M  END
>  <meeko>  (4) 
{"is_sidechain": [false], "free_energy": -8.75, "intermolecular_energy": -10.393, "internal_energy": -0.524}

$$$$
ligand_61_conformer_2_docked
     RDKit          3D

 41 44  0  0  0  0  0  0  0  0999 V2000
    5.0270   46.7130   52.0530 O   0  0  0  0  0  0  0  0  0  0  0  0
    5.8410   45.9650   52.6600 C   0  0  0  0  0  0  0  0  0  0  0  0
    5.3830   44.7250   53.2260 N   0  0  0  0  0  0  0  0  0  0  0  0
    4.1980   44.0390   52.7860 C   0  0  0  0  0  0  0  0  0  0  0  0
    4.2460   43.2550   51.6260 C   0  0  0  0  0  0  0  0  0  0  0  0
    3.1020   42.6000   51.1670 C   0  0  0  0  0  0  0  0  0  0  0  0
    1.8950   42.7280   51.8600 C   0  0  0  0  0  0  0  0  0  0  0  0
    1.8210   43.5180   53.0180 C   0  0  0  0  0  0  0  0  0  0  0  0
    0.5350   43.6580   53.7390 C   0  0  0  0  0  0  0  0  0  0  0  0
   -0.6090   43.0220   53.3950 N   0  0  0  0  0  0  0  0  0  0  0  0
   -1.5760   43.3360   54.2480 N   0  0  0  0  0  0  0  0  0  0  0  0
   -1.0470   44.1910   55.1420 C   0  0  0  0  0  0  0  0  0  0  0  0
    0.2740   44.4010   54.8760 C   0  0  0  0  0  0  0  0  0  0  0  0
    1.1230   45.2770   55.7470 C   0  0  0  0  0  0  0  0  0  0  0  0
    0.5520   45.3870   57.0470 O   0  0  0  0  0  0  0  0  0  0  0  0
   -0.8010   45.8300   56.9730 C   0  0  0  0  0  0  0  0  0  0  0  0
   -1.7140   44.7470   56.3560 C   0  0  0  0  0  0  0  0  0  0  0  0
    2.9750   44.1850   53.4650 C   0  0  0  0  0  0  0  0  0  0  0  0
    7.2490   46.4010   52.8230 C   0  0  0  0  0  0  0  0  0  0  0  0
    8.1600   46.2860   51.7580 C   0  0  0  0  0  0  0  0  0  0  0  0
    9.4520   46.6800   51.9110 N   0  0  0  0  0  0  0  0  0  0  0  0
    9.9120   47.1880   53.0830 C   0  0  0  0  0  0  0  0  0  0  0  0
    9.0530   47.3150   54.1760 C   0  0  0  0  0  0  0  0  0  0  0  0
    9.5320   47.8280   55.3790 O   0  0  0  0  0  0  0  0  0  0  0  0
    7.7160   46.9170   54.0440 C   0  0  0  0  0  0  0  0  0  0  0  0
    5.8730   44.3610   54.0750 H   0  0  0  0  0  0  0  0  0  0  0  0
    5.1917   43.1549   51.0731 H   0  0  0  0  0  0  0  0  0  0  0  0
    3.1505   41.9820   50.2583 H   0  0  0  0  0  0  0  0  0  0  0  0
    0.9976   42.2065   51.4958 H   0  0  0  0  0  0  0  0  0  0  0  0
   -0.7420   42.3820   52.5820 H   0  0  0  0  0  0  0  0  0  0  0  0
    2.1294   44.8405   55.8289 H   0  0  0  0  0  0  0  0  0  0  0  0
    1.1812   46.2790   55.2968 H   0  0  0  0  0  0  0  0  0  0  0  0
   -1.1574   46.0637   57.9871 H   0  0  0  0  0  0  0  0  0  0  0  0
   -0.8392   46.7227   56.3314 H   0  0  0  0  0  0  0  0  0  0  0  0
   -1.8802   43.9427   57.0877 H   0  0  0  0  0  0  0  0  0  0  0  0
   -2.6838   45.1875   56.0813 H   0  0  0  0  0  0  0  0  0  0  0  0
    2.9208   44.8282   54.3557 H   0  0  0  0  0  0  0  0  0  0  0  0
    7.8249   45.8744   50.7945 H   0  0  0  0  0  0  0  0  0  0  0  0
   10.9631   47.5000   53.1714 H   0  0  0  0  0  0  0  0  0  0  0  0
   10.2570   47.3560   55.9060 H   0  0  0  0  0  0  0  0  0  0  0  0
    7.0297   47.0087   54.8988 H   0  0  0  0  0  0  0  0  0  0  0  0
  1  2  2  0
  2  3  1  0
  3  4  1  0
  4  5  2  0
  5  6  1  0
  6  7  2  0
  7  8  1  0
  8  9  1  0
  9 10  1  0
 10 11  1  0
 11 12  2  0
 12 13  1  0
 13 14  1  0
 14 15  1  0
 15 16  1  0
 16 17  1  0
  8 18  2  0
  2 19  1  0
 19 20  2  0
 20 21  1  0
 21 22  2  0
 22 23  1  0
 23 24  1  0
 23 25  2  0
 18  4  1  0
 25 19  1  0
 13  9  2  0
 17 12  1  0
  3 26  1  0
  5 27  1  0
  6 28  1  0
  7 29  1  0
 10 30  1  0
 14 31  1  0
 14 32  1  0
 16 33  1  0
 16 34  1  0
 17 35  1  0
 17 36  1  0
 18 37  1  0
 20 38  1  0
 22 39  1  0
 24 40  1  0
 25 41  1  0
M  END
>  <meeko>  (5) 
{"is_sidechain": [false], "free_energy": -8.58, "intermolecular_energy": -10.48, "internal_energy": -0.233}

$$$$
