ligand_42_conformer_2_docked
     RDKit          3D

 47 49  0  0  0  0  0  0  0  0999 V2000
    0.6050   45.2040   55.9930 C   0  0  0  0  0  0  0  0  0  0  0  0
    1.5480   44.4470   55.2550 O   0  0  0  0  0  0  0  0  0  0  0  0
    1.4510   44.5740   53.8340 C   0  0  2  0  0  0  0  0  0  0  0  0
    2.3650   45.7240   53.4410 C   0  0  0  0  0  0  0  0  0  0  0  0
    1.9840   46.7900   52.7010 N   0  0  0  0  0  0  0  0  0  0  0  0
    3.0320   47.5960   52.5930 N   0  0  0  0  0  0  0  0  0  0  0  0
    4.0340   47.0160   53.2790 C   0  0  0  0  0  0  0  0  0  0  0  0
    3.6480   45.8630   53.8400 N   0  0  0  0  0  0  0  0  0  0  0  0
    4.5130   44.9700   54.6030 C   0  0  0  0  0  0  0  0  0  0  0  0
    5.6740   45.7660   55.2100 C   0  0  0  0  0  0  0  0  0  0  0  0
    6.2740   46.6680   54.2060 N   0  0  0  0  0  0  0  0  0  0  0  0
    7.6980   46.8860   54.1850 C   0  0  0  0  0  0  0  0  0  0  0  0
    8.2240   47.7120   54.9800 O   0  0  0  0  0  0  0  0  0  0  0  0
    8.4930   46.1720   53.2730 O   0  0  0  0  0  0  0  0  0  0  0  0
    8.7750   46.5400   51.9150 C   0  0  0  0  0  0  0  0  0  0  0  0
    7.8880   45.7400   50.9400 C   0  0  0  0  0  0  0  0  0  0  0  0
   10.2470   46.1900   51.6460 C   0  0  0  0  0  0  0  0  0  0  0  0
    8.5790   48.0540   51.7120 C   0  0  0  0  0  0  0  0  0  0  0  0
    5.4150   47.5730   53.4220 C   0  0  0  0  0  0  0  0  0  0  0  0
    0.0150   44.7890   53.3590 C   0  0  0  0  0  0  0  0  0  0  0  0
   -0.4070   43.4290   52.8140 C   0  0  0  0  0  0  0  0  0  0  0  0
    0.6850   42.5360   52.8520 O   0  0  0  0  0  0  0  0  0  0  0  0
    1.8430   43.3050   53.0670 C   0  0  0  0  0  0  0  0  0  0  0  0
    0.7822   45.0617   57.0693 H   0  0  0  0  0  0  0  0  0  0  0  0
    0.7125   46.2694   55.7414 H   0  0  0  0  0  0  0  0  0  0  0  0
   -0.4120   44.8686   55.7414 H   0  0  0  0  0  0  0  0  0  0  0  0
    3.9317   44.4994   55.4096 H   0  0  0  0  0  0  0  0  0  0  0  0
    4.9145   44.1941   53.9346 H   0  0  0  0  0  0  0  0  0  0  0  0
    5.2989   46.3641   56.0535 H   0  0  0  0  0  0  0  0  0  0  0  0
    6.4439   45.0595   55.5536 H   0  0  0  0  0  0  0  0  0  0  0  0
    7.1901   45.1105   51.5116 H   0  0  0  0  0  0  0  0  0  0  0  0
    7.3190   46.4363   50.3064 H   0  0  0  0  0  0  0  0  0  0  0  0
    8.5221   45.1024   50.3064 H   0  0  0  0  0  0  0  0  0  0  0  0
   10.7748   46.0645   52.6029 H   0  0  0  0  0  0  0  0  0  0  0  0
   10.3021   45.2537   51.0713 H   0  0  0  0  0  0  0  0  0  0  0  0
   10.7177   47.0013   51.0713 H   0  0  0  0  0  0  0  0  0  0  0  0
    8.5148   48.5500   52.6917 H   0  0  0  0  0  0  0  0  0  0  0  0
    9.4318   48.4620   51.1496 H   0  0  0  0  0  0  0  0  0  0  0  0
    7.6504   48.2314   51.1496 H   0  0  0  0  0  0  0  0  0  0  0  0
    5.3588   48.5461   53.9318 H   0  0  0  0  0  0  0  0  0  0  0  0
    5.8513   47.6865   52.4186 H   0  0  0  0  0  0  0  0  0  0  0  0
   -0.6315   45.0914   54.1960 H   0  0  0  0  0  0  0  0  0  0  0  0
   -0.0645   45.5873   52.6064 H   0  0  0  0  0  0  0  0  0  0  0  0
   -1.2271   43.0286   53.4281 H   0  0  0  0  0  0  0  0  0  0  0  0
   -0.7438   43.5448   51.7733 H   0  0  0  0  0  0  0  0  0  0  0  0
    2.5690   42.7252   53.6559 H   0  0  0  0  0  0  0  0  0  0  0  0
    2.3003   43.5740   52.1034 H   0  0  0  0  0  0  0  0  0  0  0  0
  1  2  1  0
  3  2  1  1
  3  4  1  0
  4  5  2  0
  5  6  1  0
  6  7  2  0
  7  8  1  0
  8  9  1  0
  9 10  1  0
 10 11  1  0
 11 12  1  0
 12 13  2  0
 12 14  1  0
 14 15  1  0
 15 16  1  0
 15 17  1  0
 15 18  1  0
 11 19  1  0
  3 20  1  0
 20 21  1  0
 21 22  1  0
 22 23  1  0
 23  3  1  0
  8  4  1  0
 19  7  1  0
  1 24  1  0
  1 25  1  0
  1 26  1  0
  9 27  1  0
  9 28  1  0
 10 29  1  0
 10 30  1  0
 16 31  1  0
 16 32  1  0
 16 33  1  0
 17 34  1  0
 17 35  1  0
 17 36  1  0
 18 37  1  0
 18 38  1  0
 18 39  1  0
 19 40  1  0
 19 41  1  0
 20 42  1  0
 20 43  1  0
 21 44  1  0
 21 45  1  0
 23 46  1  0
 23 47  1  0
M  END
>  <meeko>  (1) 
{"is_sidechain": [false], "free_energy": -8.11, "intermolecular_energy": -10.481, "internal_energy": -0.392}

$$$$
ligand_42_conformer_2_docked
     RDKit          3D

 47 49  0  0  0  0  0  0  0  0999 V2000
    1.0940   42.7500   52.6900 C   0  0  0  0  0  0  0  0  0  0  0  0
    1.4120   43.3570   53.9300 O   0  0  0  0  0  0  0  0  0  0  0  0
    0.8120   44.6360   54.1520 C   0  0  2  0  0  0  0  0  0  0  0  0
    1.7670   45.6670   53.5730 C   0  0  0  0  0  0  0  0  0  0  0  0
    1.4330   46.5850   52.6380 N   0  0  0  0  0  0  0  0  0  0  0  0
    2.5070   47.3290   52.4070 N   0  0  0  0  0  0  0  0  0  0  0  0
    3.4770   46.8610   53.2130 C   0  0  0  0  0  0  0  0  0  0  0  0
    3.0460   45.8440   53.9700 N   0  0  0  0  0  0  0  0  0  0  0  0
    3.8690   45.0880   54.9080 C   0  0  0  0  0  0  0  0  0  0  0  0
    5.0430   45.9530   55.3820 C   0  0  0  0  0  0  0  0  0  0  0  0
    5.6890   46.6340   54.2420 N   0  0  0  0  0  0  0  0  0  0  0  0
    7.1190   46.8070   54.2140 C   0  0  0  0  0  0  0  0  0  0  0  0
    7.6760   47.6050   55.0160 O   0  0  0  0  0  0  0  0  0  0  0  0
    7.8850   46.0790   53.2880 O   0  0  0  0  0  0  0  0  0  0  0  0
    8.4690   46.5840   52.0780 C   0  0  0  0  0  0  0  0  0  0  0  0
   10.0010   46.4260   52.1060 C   0  0  0  0  0  0  0  0  0  0  0  0
    8.1270   48.0800   52.0000 C   0  0  0  0  0  0  0  0  0  0  0  0
    7.8710   45.8730   50.8490 C   0  0  0  0  0  0  0  0  0  0  0  0
    4.8720   47.3990   53.2820 C   0  0  0  0  0  0  0  0  0  0  0  0
    0.5070   44.8950   55.6270 C   0  0  0  0  0  0  0  0  0  0  0  0
   -0.9970   44.6720   55.7430 C   0  0  0  0  0  0  0  0  0  0  0  0
   -1.5460   44.4220   54.4670 O   0  0  0  0  0  0  0  0  0  0  0  0
   -0.5760   44.7910   53.5180 C   0  0  0  0  0  0  0  0  0  0  0  0
    0.5905   41.7889   52.8707 H   0  0  0  0  0  0  0  0  0  0  0  0
    0.4267   43.4117   52.1183 H   0  0  0  0  0  0  0  0  0  0  0  0
    2.0179   42.5781   52.1183 H   0  0  0  0  0  0  0  0  0  0  0  0
    3.2587   44.7939   55.7746 H   0  0  0  0  0  0  0  0  0  0  0  0
    4.2586   44.1894   54.4073 H   0  0  0  0  0  0  0  0  0  0  0  0
    4.6710   46.7088   56.0894 H   0  0  0  0  0  0  0  0  0  0  0  0
    5.7845   45.3030   55.8695 H   0  0  0  0  0  0  0  0  0  0  0  0
   10.3469   46.3903   53.1496 H   0  0  0  0  0  0  0  0  0  0  0  0
   10.2829   45.4940   51.5942 H   0  0  0  0  0  0  0  0  0  0  0  0
   10.4672   47.2808   51.5942 H   0  0  0  0  0  0  0  0  0  0  0  0
    8.0337   48.4883   53.0171 H   0  0  0  0  0  0  0  0  0  0  0  0
    8.9268   48.6115   51.4635 H   0  0  0  0  0  0  0  0  0  0  0  0
    7.1757   48.2112   51.4635 H   0  0  0  0  0  0  0  0  0  0  0  0
    7.1962   45.0706   51.1819 H   0  0  0  0  0  0  0  0  0  0  0  0
    7.3076   46.5985   50.2438 H   0  0  0  0  0  0  0  0  0  0  0  0
    8.6823   45.4422   50.2438 H   0  0  0  0  0  0  0  0  0  0  0  0
    4.8359   48.4515   53.5996 H   0  0  0  0  0  0  0  0  0  0  0  0
    5.3300   47.3114   52.2857 H   0  0  0  0  0  0  0  0  0  0  0  0
    1.0565   44.1903   56.2685 H   0  0  0  0  0  0  0  0  0  0  0  0
    0.8096   45.9023   55.9491 H   0  0  0  0  0  0  0  0  0  0  0  0
   -1.1882   43.8090   56.3977 H   0  0  0  0  0  0  0  0  0  0  0  0
   -1.4646   45.5724   56.1681 H   0  0  0  0  0  0  0  0  0  0  0  0
   -0.6549   44.1399   52.6349 H   0  0  0  0  0  0  0  0  0  0  0  0
   -0.7326   45.8342   53.2064 H   0  0  0  0  0  0  0  0  0  0  0  0
  1  2  1  0
  3  2  1  1
  3  4  1  0
  4  5  2  0
  5  6  1  0
  6  7  2  0
  7  8  1  0
  8  9  1  0
  9 10  1  0
 10 11  1  0
 11 12  1  0
 12 13  2  0
 12 14  1  0
 14 15  1  0
 15 16  1  0
 15 17  1  0
 15 18  1  0
 11 19  1  0
  3 20  1  0
 20 21  1  0
 21 22  1  0
 22 23  1  0
 23  3  1  0
  8  4  1  0
 19  7  1  0
  1 24  1  0
  1 25  1  0
  1 26  1  0
  9 27  1  0
  9 28  1  0
 10 29  1  0
 10 30  1  0
 16 31  1  0
 16 32  1  0
 16 33  1  0
 17 34  1  0
 17 35  1  0
 17 36  1  0
 18 37  1  0
 18 38  1  0
 18 39  1  0
 19 40  1  0
 19 41  1  0
 20 42  1  0
 20 43  1  0
 21 44  1  0
 21 45  1  0
 23 46  1  0
 23 47  1  0
M  END
>  <meeko>  (2) 
{"is_sidechain": [false], "free_energy": -7.651, "intermolecular_energy": -10.058, "internal_energy": -0.22}

$$$$
ligand_42_conformer_2_docked
     RDKit          3D

 47 49  0  0  0  0  0  0  0  0999 V2000
   -0.0960   44.9830   55.4550 C   0  0  0  0  0  0  0  0  0  0  0  0
    0.8340   44.0170   54.9990 O   0  0  0  0  0  0  0  0  0  0  0  0
    0.7630   43.7170   53.6020 C   0  0  2  0  0  0  0  0  0  0  0  0
    2.1980   43.6260   53.1080 C   0  0  0  0  0  0  0  0  0  0  0  0
    2.6610   42.6790   52.2600 N   0  0  0  0  0  0  0  0  0  0  0  0
    3.9400   42.9400   52.0300 N   0  0  0  0  0  0  0  0  0  0  0  0
    4.2370   44.0500   52.7300 C   0  0  0  0  0  0  0  0  0  0  0  0
    3.1720   44.5180   53.3930 N   0  0  0  0  0  0  0  0  0  0  0  0
    3.1780   45.6740   54.2830 C   0  0  0  0  0  0  0  0  0  0  0  0
    4.3150   46.6250   53.8900 C   0  0  0  0  0  0  0  0  0  0  0  0
    5.5700   45.8790   53.6660 N   0  0  0  0  0  0  0  0  0  0  0  0
    6.8330   46.4460   54.0690 C   0  0  0  0  0  0  0  0  0  0  0  0
    6.8730   47.3210   54.9750 O   0  0  0  0  0  0  0  0  0  0  0  0
    8.0140   46.0130   53.4440 O   0  0  0  0  0  0  0  0  0  0  0  0
    9.0590   46.8480   52.9220 C   0  0  0  0  0  0  0  0  0  0  0  0
    8.4660   48.0060   52.0950 C   0  0  0  0  0  0  0  0  0  0  0  0
    9.9210   45.9720   52.0000 C   0  0  0  0  0  0  0  0  0  0  0  0
    9.9410   47.3900   54.0630 C   0  0  0  0  0  0  0  0  0  0  0  0
    5.5810   44.7060   52.7740 C   0  0  0  0  0  0  0  0  0  0  0  0
   -0.0530   44.7450   52.8200 C   0  0  0  0  0  0  0  0  0  0  0  0
   -1.3900   44.0540   52.5760 C   0  0  0  0  0  0  0  0  0  0  0  0
   -1.3400   42.7270   53.0540 O   0  0  0  0  0  0  0  0  0  0  0  0
    0.0130   42.4190   53.2810 C   0  0  0  0  0  0  0  0  0  0  0  0
   -0.1052   44.9925   56.5549 H   0  0  0  0  0  0  0  0  0  0  0  0
    0.1945   45.9763   55.0821 H   0  0  0  0  0  0  0  0  0  0  0  0
   -1.0996   44.7304   55.0821 H   0  0  0  0  0  0  0  0  0  0  0  0
    2.2162   46.2017   54.2030 H   0  0  0  0  0  0  0  0  0  0  0  0
    3.3291   45.3349   55.3185 H   0  0  0  0  0  0  0  0  0  0  0  0
    4.0397   47.1533   52.9653 H   0  0  0  0  0  0  0  0  0  0  0  0
    4.4730   47.3424   54.7087 H   0  0  0  0  0  0  0  0  0  0  0  0
    8.0714   48.7766   52.7735 H   0  0  0  0  0  0  0  0  0  0  0  0
    9.2512   48.4432   51.4607 H   0  0  0  0  0  0  0  0  0  0  0  0
    7.6523   47.6245   51.4607 H   0  0  0  0  0  0  0  0  0  0  0  0
   10.5632   45.3193   52.6096 H   0  0  0  0  0  0  0  0  0  0  0  0
    9.2683   45.3548   51.3652 H   0  0  0  0  0  0  0  0  0  0  0  0
   10.5486   46.6147   51.3652 H   0  0  0  0  0  0  0  0  0  0  0  0
    9.4965   47.1169   55.0314 H   0  0  0  0  0  0  0  0  0  0  0  0
   10.9483   46.9548   53.9861 H   0  0  0  0  0  0  0  0  0  0  0  0
   10.0079   48.4853   53.9861 H   0  0  0  0  0  0  0  0  0  0  0  0
    5.8565   45.0290   51.7592 H   0  0  0  0  0  0  0  0  0  0  0  0
    6.3115   43.9801   53.1605 H   0  0  0  0  0  0  0  0  0  0  0  0
   -0.1905   45.6638   53.4090 H   0  0  0  0  0  0  0  0  0  0  0  0
    0.4397   45.0513   51.8854 H   0  0  0  0  0  0  0  0  0  0  0  0
   -2.1850   44.6017   53.1032 H   0  0  0  0  0  0  0  0  0  0  0  0
   -1.5993   44.0420   51.4962 H   0  0  0  0  0  0  0  0  0  0  0  0
    0.0974   41.7229   54.1286 H   0  0  0  0  0  0  0  0  0  0  0  0
    0.4458   41.9462   52.3871 H   0  0  0  0  0  0  0  0  0  0  0  0
  1  2  1  0
  3  2  1  1
  3  4  1  0
  4  5  2  0
  5  6  1  0
  6  7  2  0
  7  8  1  0
  8  9  1  0
  9 10  1  0
 10 11  1  0
 11 12  1  0
 12 13  2  0
 12 14  1  0
 14 15  1  0
 15 16  1  0
 15 17  1  0
 15 18  1  0
 11 19  1  0
  3 20  1  0
 20 21  1  0
 21 22  1  0
 22 23  1  0
 23  3  1  0
  8  4  1  0
 19  7  1  0
  1 24  1  0
  1 25  1  0
  1 26  1  0
  9 27  1  0
  9 28  1  0
 10 29  1  0
 10 30  1  0
 16 31  1  0
 16 32  1  0
 16 33  1  0
 17 34  1  0
 17 35  1  0
 17 36  1  0
 18 37  1  0
 18 38  1  0
 18 39  1  0
 19 40  1  0
 19 41  1  0
 20 42  1  0
 20 43  1  0
 21 44  1  0
 21 45  1  0
 23 46  1  0
 23 47  1  0
M  END
>  <meeko>  (3) 
{"is_sidechain": [false], "free_energy": -7.393, "intermolecular_energy": -10.081, "internal_energy": 0.135}

$$$$
ligand_42_conformer_2_docked
     RDKit          3D

 47 49  0  0  0  0  0  0  0  0999 V2000
    9.6980   47.9760   55.1590 C   0  0  0  0  0  0  0  0  0  0  0  0
    8.7390   48.3250   54.1770 O   0  0  0  0  0  0  0  0  0  0  0  0
    8.3440   47.2600   53.3070 C   0  0  2  0  0  0  0  0  0  0  0  0
    6.9820   46.7900   53.7920 C   0  0  0  0  0  0  0  0  0  0  0  0
    6.3260   47.3050   54.8570 N   0  0  0  0  0  0  0  0  0  0  0  0
    5.1630   46.6740   54.9520 N   0  0  0  0  0  0  0  0  0  0  0  0
    5.1210   45.7920   53.9370 C   0  0  0  0  0  0  0  0  0  0  0  0
    6.2250   45.8530   53.1810 N   0  0  0  0  0  0  0  0  0  0  0  0
    6.5080   44.9920   52.0380 C   0  0  0  0  0  0  0  0  0  0  0  0
    5.1930   44.4800   51.4360 C   0  0  0  0  0  0  0  0  0  0  0  0
    4.2840   43.9980   52.4950 N   0  0  0  0  0  0  0  0  0  0  0  0
    3.4570   42.8390   52.2700 C   0  0  0  0  0  0  0  0  0  0  0  0
    3.8710   41.8990   51.5370 O   0  0  0  0  0  0  0  0  0  0  0  0
    2.1900   42.7660   52.8730 O   0  0  0  0  0  0  0  0  0  0  0  0
    0.9500   43.2200   52.3110 C   0  0  0  0  0  0  0  0  0  0  0  0
    0.5340   44.5690   52.9300 C   0  0  0  0  0  0  0  0  0  0  0  0
   -0.1150   42.1670   52.6550 C   0  0  0  0  0  0  0  0  0  0  0  0
    1.0590   43.3340   50.7780 C   0  0  0  0  0  0  0  0  0  0  0  0
    3.9900   44.8520   53.6600 C   0  0  0  0  0  0  0  0  0  0  0  0
    9.3660   46.1250   53.2650 C   0  0  0  0  0  0  0  0  0  0  0  0
   10.0990   46.3290   51.9430 C   0  0  0  0  0  0  0  0  0  0  0  0
    9.5080   47.3910   51.2260 O   0  0  0  0  0  0  0  0  0  0  0  0
    8.2660   47.6590   51.8280 C   0  0  0  0  0  0  0  0  0  0  0  0
    9.2705   48.1316   56.1605 H   0  0  0  0  0  0  0  0  0  0  0  0
    9.9770   46.9187   55.0396 H   0  0  0  0  0  0  0  0  0  0  0  0
   10.5913   48.6067   55.0396 H   0  0  0  0  0  0  0  0  0  0  0  0
    7.0597   45.5640   51.2775 H   0  0  0  0  0  0  0  0  0  0  0  0
    7.1140   44.1358   52.3690 H   0  0  0  0  0  0  0  0  0  0  0  0
    4.7049   45.2987   50.8869 H   0  0  0  0  0  0  0  0  0  0  0  0
    5.4179   43.6442   50.7571 H   0  0  0  0  0  0  0  0  0  0  0  0
    0.5578   44.4919   54.0270 H   0  0  0  0  0  0  0  0  0  0  0  0
    1.2319   45.3535   52.6023 H   0  0  0  0  0  0  0  0  0  0  0  0
   -0.4846   44.8242   52.6023 H   0  0  0  0  0  0  0  0  0  0  0  0
   -0.2040   42.0790   53.7479 H   0  0  0  0  0  0  0  0  0  0  0  0
   -1.0831   42.4728   52.2317 H   0  0  0  0  0  0  0  0  0  0  0  0
    0.1798   41.1955   52.2317 H   0  0  0  0  0  0  0  0  0  0  0  0
    1.7979   44.1068   50.5194 H   0  0  0  0  0  0  0  0  0  0  0  0
    1.3776   42.3676   50.3602 H   0  0  0  0  0  0  0  0  0  0  0  0
    0.0793   43.6090   50.3602 H   0  0  0  0  0  0  0  0  0  0  0  0
    3.0794   45.4350   53.4576 H   0  0  0  0  0  0  0  0  0  0  0  0
    3.8480   44.2069   54.5396 H   0  0  0  0  0  0  0  0  0  0  0  0
   10.0634   46.1966   54.1127 H   0  0  0  0  0  0  0  0  0  0  0  0
    8.8965   45.1329   53.3373 H   0  0  0  0  0  0  0  0  0  0  0  0
   11.1541   46.5668   52.1437 H   0  0  0  0  0  0  0  0  0  0  0  0
   10.0330   45.4075   51.3459 H   0  0  0  0  0  0  0  0  0  0  0  0
    8.0375   48.7318   51.7449 H   0  0  0  0  0  0  0  0  0  0  0  0
    7.4728   47.0863   51.3252 H   0  0  0  0  0  0  0  0  0  0  0  0
  1  2  1  0
  3  2  1  1
  3  4  1  0
  4  5  2  0
  5  6  1  0
  6  7  2  0
  7  8  1  0
  8  9  1  0
  9 10  1  0
 10 11  1  0
 11 12  1  0
 12 13  2  0
 12 14  1  0
 14 15  1  0
 15 16  1  0
 15 17  1  0
 15 18  1  0
 11 19  1  0
  3 20  1  0
 20 21  1  0
 21 22  1  0
 22 23  1  0
 23  3  1  0
  8  4  1  0
 19  7  1  0
  1 24  1  0
  1 25  1  0
  1 26  1  0
  9 27  1  0
  9 28  1  0
 10 29  1  0
 10 30  1  0
 16 31  1  0
 16 32  1  0
 16 33  1  0
 17 34  1  0
 17 35  1  0
 17 36  1  0
 18 37  1  0
 18 38  1  0
 18 39  1  0
 19 40  1  0
 19 41  1  0
 20 42  1  0
 20 43  1  0
 21 44  1  0
 21 45  1  0
 23 46  1  0
 23 47  1  0
M  END
>  <meeko>  (4) 
{"is_sidechain": [false], "free_energy": -7.175, "intermolecular_energy": -9.621, "internal_energy": -0.043}

$$$$
ligand_42_conformer_2_docked
     RDKit          3D

 47 49  0  0  0  0  0  0  0  0999 V2000
   10.6770   45.9240   51.6160 C   0  0  0  0  0  0  0  0  0  0  0  0
    9.6420   46.8900   51.6490 O   0  0  0  0  0  0  0  0  0  0  0  0
    8.7530   46.7890   52.7660 C   0  0  2  0  0  0  0  0  0  0  0  0
    7.4610   46.1890   52.2340 C   0  0  0  0  0  0  0  0  0  0  0  0
    7.2670   45.7930   50.9550 N   0  0  0  0  0  0  0  0  0  0  0  0
    6.0410   45.2920   50.8740 N   0  0  0  0  0  0  0  0  0  0  0  0
    5.5100   45.3790   52.1070 C   0  0  0  0  0  0  0  0  0  0  0  0
    6.3730   45.9090   52.9830 N   0  0  0  0  0  0  0  0  0  0  0  0
    6.0820   46.1840   54.3860 C   0  0  0  0  0  0  0  0  0  0  0  0
    4.9660   45.2530   54.8760 C   0  0  0  0  0  0  0  0  0  0  0  0
    3.8550   45.2080   53.9050 N   0  0  0  0  0  0  0  0  0  0  0  0
    2.4910   45.1350   54.3640 C   0  0  0  0  0  0  0  0  0  0  0  0
    2.2440   44.9670   55.5890 O   0  0  0  0  0  0  0  0  0  0  0  0
    1.4420   45.2540   53.4370 O   0  0  0  0  0  0  0  0  0  0  0  0
    0.5430   44.2130   53.0260 C   0  0  0  0  0  0  0  0  0  0  0  0
    0.2410   44.3200   51.5190 C   0  0  0  0  0  0  0  0  0  0  0  0
   -0.7640   44.4080   53.8090 C   0  0  0  0  0  0  0  0  0  0  0  0
    1.1260   42.8280   53.3680 C   0  0  0  0  0  0  0  0  0  0  0  0
    4.1310   44.9370   52.4820 C   0  0  0  0  0  0  0  0  0  0  0  0
    8.5240   48.1300   53.4590 C   0  0  0  0  0  0  0  0  0  0  0  0
    9.3860   48.0540   54.7160 C   0  0  0  0  0  0  0  0  0  0  0  0
    9.9710   46.7740   54.8200 O   0  0  0  0  0  0  0  0  0  0  0  0
    9.2940   45.9330   53.9180 C   0  0  0  0  0  0  0  0  0  0  0  0
   10.9626   45.6574   52.6443 H   0  0  0  0  0  0  0  0  0  0  0  0
   10.3233   45.0255   51.0891 H   0  0  0  0  0  0  0  0  0  0  0  0
   11.5490   46.3387   51.0891 H   0  0  0  0  0  0  0  0  0  0  0  0
    6.9880   46.0161   54.9868 H   0  0  0  0  0  0  0  0  0  0  0  0
    5.7563   47.2293   54.4918 H   0  0  0  0  0  0  0  0  0  0  0  0
    5.3731   44.2393   55.0051 H   0  0  0  0  0  0  0  0  0  0  0  0
    4.5820   45.6369   55.8327 H   0  0  0  0  0  0  0  0  0  0  0  0
   -0.7871   44.6842   51.3760 H   0  0  0  0  0  0  0  0  0  0  0  0
    0.9472   45.0227   51.0525 H   0  0  0  0  0  0  0  0  0  0  0  0
    0.3473   43.3295   51.0525 H   0  0  0  0  0  0  0  0  0  0  0  0
   -0.5531   44.3765   54.8881 H   0  0  0  0  0  0  0  0  0  0  0  0
   -1.2049   45.3819   53.5498 H   0  0  0  0  0  0  0  0  0  0  0  0
   -1.4700   43.6052   53.5498 H   0  0  0  0  0  0  0  0  0  0  0  0
    1.1754   42.7106   54.4606 H   0  0  0  0  0  0  0  0  0  0  0  0
    0.4816   42.0440   52.9438 H   0  0  0  0  0  0  0  0  0  0  0  0
    2.1371   42.7409   52.9438 H   0  0  0  0  0  0  0  0  0  0  0  0
    4.0374   43.8567   52.2973 H   0  0  0  0  0  0  0  0  0  0  0  0
    3.4067   45.4977   51.8728 H   0  0  0  0  0  0  0  0  0  0  0  0
    8.8457   48.9618   52.8151 H   0  0  0  0  0  0  0  0  0  0  0  0
    7.4630   48.3111   53.6861 H   0  0  0  0  0  0  0  0  0  0  0  0
   10.1791   48.8142   54.6610 H   0  0  0  0  0  0  0  0  0  0  0  0
    8.7561   48.2374   55.5990 H   0  0  0  0  0  0  0  0  0  0  0  0
    9.9884   45.1765   53.5237 H   0  0  0  0  0  0  0  0  0  0  0  0
    8.4648   45.4221   54.4293 H   0  0  0  0  0  0  0  0  0  0  0  0
  1  2  1  0
  3  2  1  6
  3  4  1  0
  4  5  2  0
  5  6  1  0
  6  7  2  0
  7  8  1  0
  8  9  1  0
  9 10  1  0
 10 11  1  0
 11 12  1  0
 12 13  2  0
 12 14  1  0
 14 15  1  0
 15 16  1  0
 15 17  1  0
 15 18  1  0
 11 19  1  0
  3 20  1  0
 20 21  1  0
 21 22  1  0
 22 23  1  0
 23  3  1  0
  8  4  1  0
 19  7  1  0
  1 24  1  0
  1 25  1  0
  1 26  1  0
  9 27  1  0
  9 28  1  0
 10 29  1  0
 10 30  1  0
 16 31  1  0
 16 32  1  0
 16 33  1  0
 17 34  1  0
 17 35  1  0
 17 36  1  0
 18 37  1  0
 18 38  1  0
 18 39  1  0
 19 40  1  0
 19 41  1  0
 20 42  1  0
 20 43  1  0
 21 44  1  0
 21 45  1  0
 23 46  1  0
 23 47  1  0
M  END
>  <meeko>  (5) 
{"is_sidechain": [false], "free_energy": -6.634, "intermolecular_energy": -8.837, "internal_energy": -0.128}

$$$$
