ligand_62_conformer_1_docked
     RDKit          3D

 45 47  0  0  0  0  0  0  0  0999 V2000
    0.8930   43.8370   54.4410 C   0  0  0  0  0  0  0  0  0  0  0  0
   -0.4860   43.4300   54.1310 N   0  0  0  0  0  0  0  0  0  0  0  0
   -1.3530   44.5930   53.8910 C   0  0  0  0  0  0  0  0  0  0  0  0
   -2.2610   44.2400   52.7300 C   0  0  0  0  0  0  0  0  0  0  0  0
   -1.4290   43.2800   51.8800 C   0  0  1  0  0  0  0  0  0  0  0  0
   -2.3290   42.2700   51.1370 C   0  0  0  0  0  0  0  0  0  0  0  0
   -0.5200   44.0460   50.8730 C   0  0  0  0  0  0  0  0  0  0  0  0
    0.8630   43.5640   50.8970 N   0  0  0  0  0  0  0  0  0  0  0  0
    1.9780   44.3920   51.2580 C   0  0  0  0  0  0  0  0  0  0  0  0
    1.7930   45.6010   51.5670 O   0  0  0  0  0  0  0  0  0  0  0  0
    3.3050   43.8480   51.2180 N   0  0  0  0  0  0  0  0  0  0  0  0
    4.4680   44.5170   51.7370 C   0  0  0  0  0  0  0  0  0  0  0  0
    4.7200   44.4890   53.1160 C   0  0  0  0  0  0  0  0  0  0  0  0
    5.8310   45.1480   53.6490 C   0  0  0  0  0  0  0  0  0  0  0  0
    6.7030   45.8610   52.8110 C   0  0  0  0  0  0  0  0  0  0  0  0
    7.8800   46.5610   53.3660 C   0  0  0  0  0  0  0  0  0  0  0  0
    7.8610   47.2630   54.5200 N   0  0  0  0  0  0  0  0  0  0  0  0
    9.1230   47.7160   54.6310 C   0  0  0  0  0  0  0  0  0  0  0  0
    9.8560   47.2780   53.5530 C   0  0  0  0  0  0  0  0  0  0  0  0
    9.0620   46.5690   52.7920 O   0  0  0  0  0  0  0  0  0  0  0  0
    6.4390   45.9100   51.4320 C   0  0  0  0  0  0  0  0  0  0  0  0
    5.3280   45.2490   50.9010 C   0  0  0  0  0  0  0  0  0  0  0  0
   -0.5530   42.5730   52.9320 C   0  0  0  0  0  0  0  0  0  0  0  0
    1.0271   43.8766   55.5321 H   0  0  0  0  0  0  0  0  0  0  0  0
    1.5958   43.1080   54.0114 H   0  0  0  0  0  0  0  0  0  0  0  0
    1.0874   44.8308   54.0114 H   0  0  0  0  0  0  0  0  0  0  0  0
   -1.9531   44.8077   54.7876 H   0  0  0  0  0  0  0  0  0  0  0  0
   -0.7543   45.4870   53.6620 H   0  0  0  0  0  0  0  0  0  0  0  0
   -3.1782   43.7493   53.0876 H   0  0  0  0  0  0  0  0  0  0  0  0
   -2.5872   45.1264   52.1663 H   0  0  0  0  0  0  0  0  0  0  0  0
   -2.8750   41.6573   51.8695 H   0  0  0  0  0  0  0  0  0  0  0  0
   -3.0473   42.8139   50.5060 H   0  0  0  0  0  0  0  0  0  0  0  0
   -1.7062   41.6189   50.5060 H   0  0  0  0  0  0  0  0  0  0  0  0
   -0.9240   43.9121   49.8587 H   0  0  0  0  0  0  0  0  0  0  0  0
   -0.5126   45.1066   51.1648 H   0  0  0  0  0  0  0  0  0  0  0  0
    1.0450   42.5670   50.6460 H   0  0  0  0  0  0  0  0  0  0  0  0
    3.4450   42.9520   50.6990 H   0  0  0  0  0  0  0  0  0  0  0  0
    4.0372   43.9436   53.7841 H   0  0  0  0  0  0  0  0  0  0  0  0
    6.0234   45.1079   54.7313 H   0  0  0  0  0  0  0  0  0  0  0  0
    9.5073   48.3377   55.4531 H   0  0  0  0  0  0  0  0  0  0  0  0
   10.9195   47.4864   53.3642 H   0  0  0  0  0  0  0  0  0  0  0  0
    7.1107   46.4719   50.7663 H   0  0  0  0  0  0  0  0  0  0  0  0
    5.1254   45.3022   49.8211 H   0  0  0  0  0  0  0  0  0  0  0  0
   -0.9973   41.6014   53.1937 H   0  0  0  0  0  0  0  0  0  0  0  0
    0.4571   42.4025   52.5312 H   0  0  0  0  0  0  0  0  0  0  0  0
  1  2  1  0
  2  3  1  0
  3  4  1  0
  4  5  1  0
  5  6  1  6
  5  7  1  0
  7  8  1  0
  8  9  1  0
  9 10  2  0
  9 11  1  0
 11 12  1  0
 12 13  2  0
 13 14  1  0
 14 15  2  0
 15 16  1  0
 16 17  2  0
 17 18  1  0
 18 19  2  0
 19 20  1  0
 15 21  1  0
 21 22  2  0
  5 23  1  0
 23  2  1  0
 22 12  1  0
 20 16  1  0
  1 24  1  0
  1 25  1  0
  1 26  1  0
  3 27  1  0
  3 28  1  0
  4 29  1  0
  4 30  1  0
  6 31  1  0
  6 32  1  0
  6 33  1  0
  7 34  1  0
  7 35  1  0
  8 36  1  0
 11 37  1  0
 13 38  1  0
 14 39  1  0
 18 40  1  0
 19 41  1  0
 21 42  1  0
 22 43  1  0
 23 44  1  0
 23 45  1  0
M  END
>  <meeko>  (1) 
{"is_sidechain": [false], "free_energy": -7.528, "intermolecular_energy": -9.289, "internal_energy": -0.637}

$$$$
ligand_62_conformer_1_docked
     RDKit          3D

 45 47  0  0  0  0  0  0  0  0999 V2000
    0.9290   46.2040   57.5420 C   0  0  0  0  0  0  0  0  0  0  0  0
   -0.4910   45.8250   57.6090 N   0  0  0  0  0  0  0  0  0  0  0  0
   -1.3530   46.8450   56.9950 C   0  0  0  0  0  0  0  0  0  0  0  0
   -2.4310   46.1120   56.2230 C   0  0  0  0  0  0  0  0  0  0  0  0
   -1.7590   44.8140   55.7790 C   0  0  1  0  0  0  0  0  0  0  0  0
   -2.7840   43.6650   55.6630 C   0  0  0  0  0  0  0  0  0  0  0  0
   -0.9880   44.9950   54.4370 C   0  0  0  0  0  0  0  0  0  0  0  0
    0.2860   44.2730   54.4280 N   0  0  0  0  0  0  0  0  0  0  0  0
    1.5380   44.8920   54.0980 C   0  0  0  0  0  0  0  0  0  0  0  0
    1.5760   46.1140   53.7880 O   0  0  0  0  0  0  0  0  0  0  0  0
    2.7350   44.1000   54.0760 N   0  0  0  0  0  0  0  0  0  0  0  0
    4.0600   44.6440   53.9490 C   0  0  0  0  0  0  0  0  0  0  0  0
    4.7270   45.1050   55.0930 C   0  0  0  0  0  0  0  0  0  0  0  0
    6.0080   45.6560   54.9950 C   0  0  0  0  0  0  0  0  0  0  0  0
    6.6380   45.7710   53.7460 C   0  0  0  0  0  0  0  0  0  0  0  0
    7.9910   46.3530   53.6340 C   0  0  0  0  0  0  0  0  0  0  0  0
    8.5380   47.1670   54.5630 N   0  0  0  0  0  0  0  0  0  0  0  0
    9.7520   47.4480   54.0560 C   0  0  0  0  0  0  0  0  0  0  0  0
    9.8990   46.8030   52.8510 C   0  0  0  0  0  0  0  0  0  0  0  0
    8.7970   46.1360   52.6180 O   0  0  0  0  0  0  0  0  0  0  0  0
    5.9620   45.3310   52.5960 C   0  0  0  0  0  0  0  0  0  0  0  0
    4.6820   44.7790   52.6960 C   0  0  0  0  0  0  0  0  0  0  0  0
   -0.7560   44.5480   56.9190 C   0  0  0  0  0  0  0  0  0  0  0  0
    1.3285   46.3106   58.5613 H   0  0  0  0  0  0  0  0  0  0  0  0
    1.4917   45.4246   57.0073 H   0  0  0  0  0  0  0  0  0  0  0  0
    1.0285   47.1601   57.0073 H   0  0  0  0  0  0  0  0  0  0  0  0
   -1.8084   47.4731   57.7748 H   0  0  0  0  0  0  0  0  0  0  0  0
   -0.7714   47.4996   56.3292 H   0  0  0  0  0  0  0  0  0  0  0  0
   -3.2975   45.9019   56.8673 H   0  0  0  0  0  0  0  0  0  0  0  0
   -2.8143   46.6988   55.3752 H   0  0  0  0  0  0  0  0  0  0  0  0
   -3.0793   43.3340   56.6696 H   0  0  0  0  0  0  0  0  0  0  0  0
   -3.6717   44.0191   55.1184 H   0  0  0  0  0  0  0  0  0  0  0  0
   -2.3312   42.8233   55.1184 H   0  0  0  0  0  0  0  0  0  0  0  0
   -1.6144   44.6179   53.6152 H   0  0  0  0  0  0  0  0  0  0  0  0
   -0.7694   46.0662   54.3155 H   0  0  0  0  0  0  0  0  0  0  0  0
    0.2840   43.2600   54.6800 H   0  0  0  0  0  0  0  0  0  0  0  0
    2.6260   43.0600   54.0600 H   0  0  0  0  0  0  0  0  0  0  0  0
    4.2382   45.0325   56.0757 H   0  0  0  0  0  0  0  0  0  0  0  0
    6.5254   46.0015   55.9022 H   0  0  0  0  0  0  0  0  0  0  0  0
   10.5073   48.0918   54.5305 H   0  0  0  0  0  0  0  0  0  0  0  0
   10.7843   46.8406   52.1992 H   0  0  0  0  0  0  0  0  0  0  0  0
    6.4430   45.4215   51.6109 H   0  0  0  0  0  0  0  0  0  0  0  0
    4.1576   44.4478   51.7875 H   0  0  0  0  0  0  0  0  0  0  0  0
   -1.1824   43.8233   57.6282 H   0  0  0  0  0  0  0  0  0  0  0  0
    0.1792   44.1350   56.5129 H   0  0  0  0  0  0  0  0  0  0  0  0
  1  2  1  0
  2  3  1  0
  3  4  1  0
  4  5  1  0
  5  6  1  6
  5  7  1  0
  7  8  1  0
  8  9  1  0
  9 10  2  0
  9 11  1  0
 11 12  1  0
 12 13  2  0
 13 14  1  0
 14 15  2  0
 15 16  1  0
 16 17  2  0
 17 18  1  0
 18 19  2  0
 19 20  1  0
 15 21  1  0
 21 22  2  0
  5 23  1  0
 23  2  1  0
 22 12  1  0
 20 16  1  0
  1 24  1  0
  1 25  1  0
  1 26  1  0
  3 27  1  0
  3 28  1  0
  4 29  1  0
  4 30  1  0
  6 31  1  0
  6 32  1  0
  6 33  1  0
  7 34  1  0
  7 35  1  0
  8 36  1  0
 11 37  1  0
 13 38  1  0
 14 39  1  0
 18 40  1  0
 19 41  1  0
 21 42  1  0
 22 43  1  0
 23 44  1  0
 23 45  1  0
M  END
>  <meeko>  (2) 
{"is_sidechain": [false], "free_energy": -7.363, "intermolecular_energy": -9.068, "internal_energy": -0.654}

$$$$
ligand_62_conformer_1_docked
     RDKit          3D

 45 47  0  0  0  0  0  0  0  0999 V2000
   -2.8460   45.3640   49.6130 C   0  0  0  0  0  0  0  0  0  0  0  0
   -3.0420   44.7350   50.9290 N   0  0  0  0  0  0  0  0  0  0  0  0
   -3.3270   43.2980   50.8050 C   0  0  0  0  0  0  0  0  0  0  0  0
   -2.5740   42.5960   51.9170 C   0  0  0  0  0  0  0  0  0  0  0  0
   -1.3390   43.4690   52.1430 C   0  0  1  0  0  0  0  0  0  0  0  0
   -0.8690   43.3990   53.6120 C   0  0  0  0  0  0  0  0  0  0  0  0
   -0.1780   43.0820   51.1800 C   0  0  0  0  0  0  0  0  0  0  0  0
    0.6560   44.2330   50.8280 N   0  0  0  0  0  0  0  0  0  0  0  0
    1.9640   44.4540   51.3770 C   0  0  0  0  0  0  0  0  0  0  0  0
    2.4440   43.6390   52.2130 O   0  0  0  0  0  0  0  0  0  0  0  0
    2.6990   45.6290   51.0060 N   0  0  0  0  0  0  0  0  0  0  0  0
    4.0790   45.8580   51.3390 C   0  0  0  0  0  0  0  0  0  0  0  0
    5.0810   45.2180   50.5950 C   0  0  0  0  0  0  0  0  0  0  0  0
    6.4290   45.4050   50.9100 C   0  0  0  0  0  0  0  0  0  0  0  0
    6.7990   46.2260   51.9870 C   0  0  0  0  0  0  0  0  0  0  0  0
    8.2230   46.4300   52.3260 C   0  0  0  0  0  0  0  0  0  0  0  0
    8.6450   47.0700   53.4380 N   0  0  0  0  0  0  0  0  0  0  0  0
    9.9860   47.0210   53.3370 C   0  0  0  0  0  0  0  0  0  0  0  0
   10.3270   46.3600   52.1800 C   0  0  0  0  0  0  0  0  0  0  0  0
    9.2190   46.0090   51.5800 O   0  0  0  0  0  0  0  0  0  0  0  0
    5.7960   46.8490   52.7480 C   0  0  0  0  0  0  0  0  0  0  0  0
    4.4480   46.6610   52.4310 C   0  0  0  0  0  0  0  0  0  0  0  0
   -1.8550   44.8780   51.7920 C   0  0  0  0  0  0  0  0  0  0  0  0
   -2.5213   46.4061   49.7494 H   0  0  0  0  0  0  0  0  0  0  0  0
   -2.0776   44.8108   49.0530 H   0  0  0  0  0  0  0  0  0  0  0  0
   -3.7926   45.3452   49.0530 H   0  0  0  0  0  0  0  0  0  0  0  0
   -4.4071   43.1174   50.9084 H   0  0  0  0  0  0  0  0  0  0  0  0
   -3.0128   42.9204   49.8208 H   0  0  0  0  0  0  0  0  0  0  0  0
   -3.1862   42.5424   52.8294 H   0  0  0  0  0  0  0  0  0  0  0  0
   -2.3151   41.5581   51.6606 H   0  0  0  0  0  0  0  0  0  0  0  0
   -1.7334   43.5277   54.2801 H   0  0  0  0  0  0  0  0  0  0  0  0
   -0.4017   42.4213   53.8013 H   0  0  0  0  0  0  0  0  0  0  0  0
   -0.1371   44.1980   53.8013 H   0  0  0  0  0  0  0  0  0  0  0  0
    0.4517   42.3251   51.6706 H   0  0  0  0  0  0  0  0  0  0  0  0
   -0.6240   42.6922   50.2531 H   0  0  0  0  0  0  0  0  0  0  0  0
    0.2850   44.9240   50.1380 H   0  0  0  0  0  0  0  0  0  0  0  0
    2.1690   46.4040   50.5450 H   0  0  0  0  0  0  0  0  0  0  0  0
    4.8029   44.5631   49.7561 H   0  0  0  0  0  0  0  0  0  0  0  0
    7.2050   44.9062   50.3108 H   0  0  0  0  0  0  0  0  0  0  0  0
   10.6961   47.4423   54.0638 H   0  0  0  0  0  0  0  0  0  0  0  0
   11.3485   46.1620   51.8232 H   0  0  0  0  0  0  0  0  0  0  0  0
    6.0734   47.4888   53.5987 H   0  0  0  0  0  0  0  0  0  0  0  0
    3.6707   47.1450   53.0406 H   0  0  0  0  0  0  0  0  0  0  0  0
   -2.1272   45.4145   52.7129 H   0  0  0  0  0  0  0  0  0  0  0  0
   -1.0731   45.4485   51.2693 H   0  0  0  0  0  0  0  0  0  0  0  0
  1  2  1  0
  2  3  1  0
  3  4  1  0
  4  5  1  0
  5  6  1  1
  5  7  1  0
  7  8  1  0
  8  9  1  0
  9 10  2  0
  9 11  1  0
 11 12  1  0
 12 13  2  0
 13 14  1  0
 14 15  2  0
 15 16  1  0
 16 17  2  0
 17 18  1  0
 18 19  2  0
 19 20  1  0
 15 21  1  0
 21 22  2  0
  5 23  1  0
 23  2  1  0
 22 12  1  0
 20 16  1  0
  1 24  1  0
  1 25  1  0
  1 26  1  0
  3 27  1  0
  3 28  1  0
  4 29  1  0
  4 30  1  0
  6 31  1  0
  6 32  1  0
  6 33  1  0
  7 34  1  0
  7 35  1  0
  8 36  1  0
 11 37  1  0
 13 38  1  0
 14 39  1  0
 18 40  1  0
 19 41  1  0
 21 42  1  0
 22 43  1  0
 23 44  1  0
 23 45  1  0
M  END
>  <meeko>  (3) 
{"is_sidechain": [false], "free_energy": -7.296, "intermolecular_energy": -9.013, "internal_energy": -0.626}

$$$$
ligand_62_conformer_1_docked
     RDKit          3D

 45 47  0  0  0  0  0  0  0  0999 V2000
    7.3170   45.4660   50.8050 C   0  0  0  0  0  0  0  0  0  0  0  0
    8.4210   46.3030   51.2990 N   0  0  0  0  0  0  0  0  0  0  0  0
    8.0400   47.7220   51.3600 C   0  0  0  0  0  0  0  0  0  0  0  0
    8.6310   48.2870   52.6360 C   0  0  0  0  0  0  0  0  0  0  0  0
    8.6530   47.1000   53.5980 C   0  0  1  0  0  0  0  0  0  0  0  0
    9.8200   47.2180   54.6020 C   0  0  0  0  0  0  0  0  0  0  0  0
    7.2990   46.9460   54.3520 C   0  0  0  0  0  0  0  0  0  0  0  0
    6.6830   45.6370   54.1230 N   0  0  0  0  0  0  0  0  0  0  0  0
    5.2980   45.4680   53.7850 C   0  0  0  0  0  0  0  0  0  0  0  0
    4.5460   46.4750   53.6800 O   0  0  0  0  0  0  0  0  0  0  0  0
    4.7680   44.1450   53.6160 N   0  0  0  0  0  0  0  0  0  0  0  0
    3.4580   43.8610   53.0950 C   0  0  0  0  0  0  0  0  0  0  0  0
    2.3310   44.1170   53.8890 C   0  0  0  0  0  0  0  0  0  0  0  0
    1.0480   43.8300   53.4150 C   0  0  0  0  0  0  0  0  0  0  0  0
    0.8710   43.2670   52.1420 C   0  0  0  0  0  0  0  0  0  0  0  0
   -0.4820   42.9610   51.6330 C   0  0  0  0  0  0  0  0  0  0  0  0
   -1.4140   42.2820   52.3380 N   0  0  0  0  0  0  0  0  0  0  0  0
   -2.4670   42.2390   51.5020 C   0  0  0  0  0  0  0  0  0  0  0  0
   -2.1430   42.8850   50.3320 C   0  0  0  0  0  0  0  0  0  0  0  0
   -0.9140   43.3190   50.4440 O   0  0  0  0  0  0  0  0  0  0  0  0
    2.0000   42.9870   51.3540 C   0  0  0  0  0  0  0  0  0  0  0  0
    3.2830   43.2760   51.8290 C   0  0  0  0  0  0  0  0  0  0  0  0
    8.8560   45.9020   52.6500 C   0  0  0  0  0  0  0  0  0  0  0  0
    6.7642   45.0469   51.6587 H   0  0  0  0  0  0  0  0  0  0  0  0
    6.6380   46.0783   50.1934 H   0  0  0  0  0  0  0  0  0  0  0  0
    7.7232   44.6469   50.1934 H   0  0  0  0  0  0  0  0  0  0  0  0
    8.4420   48.2586   50.4880 H   0  0  0  0  0  0  0  0  0  0  0  0
    6.9458   47.8346   51.3517 H   0  0  0  0  0  0  0  0  0  0  0  0
    9.6488   48.6653   52.4602 H   0  0  0  0  0  0  0  0  0  0  0  0
    8.0518   49.1359   53.0282 H   0  0  0  0  0  0  0  0  0  0  0  0
    9.4262   47.1782   55.6283 H   0  0  0  0  0  0  0  0  0  0  0  0
   10.5230   46.3864   54.4465 H   0  0  0  0  0  0  0  0  0  0  0  0
   10.3423   48.1735   54.4465 H   0  0  0  0  0  0  0  0  0  0  0  0
    7.4782   47.0692   55.4303 H   0  0  0  0  0  0  0  0  0  0  0  0
    6.6107   47.7142   53.9697 H   0  0  0  0  0  0  0  0  0  0  0  0
    7.2820   44.7860   54.2040 H   0  0  0  0  0  0  0  0  0  0  0  0
    5.3360   43.3460   53.9800 H   0  0  0  0  0  0  0  0  0  0  0  0
    2.4578   44.5473   54.8934 H   0  0  0  0  0  0  0  0  0  0  0  0
    0.1717   44.0468   54.0436 H   0  0  0  0  0  0  0  0  0  0  0  0
   -3.4342   41.7625   51.7198 H   0  0  0  0  0  0  0  0  0  0  0  0
   -2.7994   43.0137   49.4587 H   0  0  0  0  0  0  0  0  0  0  0  0
    1.8739   42.5379   50.3578 H   0  0  0  0  0  0  0  0  0  0  0  0
    4.1608   43.0441   51.2080 H   0  0  0  0  0  0  0  0  0  0  0  0
    9.9188   45.6191   52.6301 H   0  0  0  0  0  0  0  0  0  0  0  0
    8.2684   45.0394   52.9974 H   0  0  0  0  0  0  0  0  0  0  0  0
  1  2  1  0
  2  3  1  0
  3  4  1  0
  4  5  1  0
  5  6  1  1
  5  7  1  0
  7  8  1  0
  8  9  1  0
  9 10  2  0
  9 11  1  0
 11 12  1  0
 12 13  2  0
 13 14  1  0
 14 15  2  0
 15 16  1  0
 16 17  2  0
 17 18  1  0
 18 19  2  0
 19 20  1  0
 15 21  1  0
 21 22  2  0
  5 23  1  0
 23  2  1  0
 22 12  1  0
 20 16  1  0
  1 24  1  0
  1 25  1  0
  1 26  1  0
  3 27  1  0
  3 28  1  0
  4 29  1  0
  4 30  1  0
  6 31  1  0
  6 32  1  0
  6 33  1  0
  7 34  1  0
  7 35  1  0
  8 36  1  0
 11 37  1  0
 13 38  1  0
 14 39  1  0
 18 40  1  0
 19 41  1  0
 21 42  1  0
 22 43  1  0
 23 44  1  0
 23 45  1  0
M  END
>  <meeko>  (4) 
{"is_sidechain": [false], "free_energy": -7.094, "intermolecular_energy": -8.832, "internal_energy": -0.558}

$$$$
ligand_62_conformer_1_docked
     RDKit          3D

 45 47  0  0  0  0  0  0  0  0999 V2000
   10.0370   45.4510   51.1800 C   0  0  0  0  0  0  0  0  0  0  0  0
   10.0000   46.8040   51.7560 N   0  0  0  0  0  0  0  0  0  0  0  0
    8.7320   47.4850   51.4570 C   0  0  0  0  0  0  0  0  0  0  0  0
    8.3260   48.2410   52.7070 C   0  0  0  0  0  0  0  0  0  0  0  0
    8.8940   47.4040   53.8530 C   0  0  1  0  0  0  0  0  0  0  0  0
    9.2550   48.2890   55.0650 C   0  0  0  0  0  0  0  0  0  0  0  0
    7.9140   46.2700   54.2780 C   0  0  0  0  0  0  0  0  0  0  0  0
    6.5600   46.7720   54.5220 N   0  0  0  0  0  0  0  0  0  0  0  0
    5.3810   46.1360   54.0060 C   0  0  0  0  0  0  0  0  0  0  0  0
    5.4820   45.0980   53.2970 O   0  0  0  0  0  0  0  0  0  0  0  0
    4.0940   46.7170   54.2620 N   0  0  0  0  0  0  0  0  0  0  0  0
    2.8430   46.0730   53.9630 C   0  0  0  0  0  0  0  0  0  0  0  0
    2.2440   46.2830   52.7120 C   0  0  0  0  0  0  0  0  0  0  0  0
    1.0180   45.6860   52.4030 C   0  0  0  0  0  0  0  0  0  0  0  0
    0.3620   44.8810   53.3470 C   0  0  0  0  0  0  0  0  0  0  0  0
   -0.9330   44.2460   53.0290 C   0  0  0  0  0  0  0  0  0  0  0  0
   -1.1170   43.3880   52.0020 N   0  0  0  0  0  0  0  0  0  0  0  0
   -2.4210   43.0700   52.0900 C   0  0  0  0  0  0  0  0  0  0  0  0
   -2.9790   43.7390   53.1540 C   0  0  0  0  0  0  0  0  0  0  0  0
   -2.0370   44.4550   53.7120 O   0  0  0  0  0  0  0  0  0  0  0  0
    0.9500   44.6890   54.6090 C   0  0  0  0  0  0  0  0  0  0  0  0
    2.1760   45.2860   54.9160 C   0  0  0  0  0  0  0  0  0  0  0  0
   10.1570   46.7850   53.2230 C   0  0  0  0  0  0  0  0  0  0  0  0
   10.0573   44.7078   51.9907 H   0  0  0  0  0  0  0  0  0  0  0  0
    9.1429   45.2922   50.5593 H   0  0  0  0  0  0  0  0  0  0  0  0
   10.9385   45.3413   50.5593 H   0  0  0  0  0  0  0  0  0  0  0  0
    8.8683   48.1856   50.6200 H   0  0  0  0  0  0  0  0  0  0  0  0
    7.9567   46.7598   51.1691 H   0  0  0  0  0  0  0  0  0  0  0  0
    8.7600   49.2517   52.7098 H   0  0  0  0  0  0  0  0  0  0  0  0
    7.2369   48.3751   52.7830 H   0  0  0  0  0  0  0  0  0  0  0  0
    9.0332   47.7452   55.9951 H   0  0  0  0  0  0  0  0  0  0  0  0
   10.3262   48.5370   55.0318 H   0  0  0  0  0  0  0  0  0  0  0  0
    8.6629   49.2155   55.0318 H   0  0  0  0  0  0  0  0  0  0  0  0
    7.8739   45.5176   53.4766 H   0  0  0  0  0  0  0  0  0  0  0  0
    8.2874   45.8351   55.2169 H   0  0  0  0  0  0  0  0  0  0  0  0
    6.4460   47.6300   55.1060 H   0  0  0  0  0  0  0  0  0  0  0  0
    4.0690   47.7060   54.6020 H   0  0  0  0  0  0  0  0  0  0  0  0
    2.7426   46.9222   51.9685 H   0  0  0  0  0  0  0  0  0  0  0  0
    0.5649   45.8483   51.4139 H   0  0  0  0  0  0  0  0  0  0  0  0
   -2.9562   42.3836   51.4174 H   0  0  0  0  0  0  0  0  0  0  0  0
   -4.0288   43.6823   53.4777 H   0  0  0  0  0  0  0  0  0  0  0  0
    0.4424   44.0653   55.3595 H   0  0  0  0  0  0  0  0  0  0  0  0
    2.6215   45.1384   55.9109 H   0  0  0  0  0  0  0  0  0  0  0  0
   11.0418   47.3722   53.5100 H   0  0  0  0  0  0  0  0  0  0  0  0
   10.2894   45.7518   53.5766 H   0  0  0  0  0  0  0  0  0  0  0  0
  1  2  1  0
  2  3  1  0
  3  4  1  0
  4  5  1  0
  5  6  1  1
  5  7  1  0
  7  8  1  0
  8  9  1  0
  9 10  2  0
  9 11  1  0
 11 12  1  0
 12 13  2  0
 13 14  1  0
 14 15  2  0
 15 16  1  0
 16 17  2  0
 17 18  1  0
 18 19  2  0
 19 20  1  0
 15 21  1  0
 21 22  2  0
  5 23  1  0
 23  2  1  0
 22 12  1  0
 20 16  1  0
  1 24  1  0
  1 25  1  0
  1 26  1  0
  3 27  1  0
  3 28  1  0
  4 29  1  0
  4 30  1  0
  6 31  1  0
  6 32  1  0
  6 33  1  0
  7 34  1  0
  7 35  1  0
  8 36  1  0
 11 37  1  0
 13 38  1  0
 14 39  1  0
 18 40  1  0
 19 41  1  0
 21 42  1  0
 22 43  1  0
 23 44  1  0
 23 45  1  0
M  END
>  <meeko>  (5) 
{"is_sidechain": [false], "free_energy": -7.053, "intermolecular_energy": -8.84, "internal_energy": -0.499}

$$$$
