ligand_40_conformer_2_docked
     RDKit          3D

 40 43  0  0  0  0  0  0  0  0999 V2000
    4.5610   44.6240   54.6440 O   0  0  0  0  0  0  0  0  0  0  0  0
    3.3220   44.8940   53.8410 S   0  0  0  0  0  0  0  0  0  0  0  0
    3.3850   46.2300   53.1550 O   0  0  0  0  0  0  0  0  0  0  0  0
    1.8660   44.7370   54.8180 C   0  0  0  0  0  0  0  0  0  0  0  0
    0.9030   43.9290   53.9440 C   0  0  0  0  0  0  0  0  0  0  0  0
    1.6990   43.0180   52.9840 C   0  0  0  0  0  0  0  0  0  0  0  0
    3.0010   43.6300   52.7240 N   0  0  0  0  0  0  0  0  0  0  0  0
    3.9650   43.1200   51.7740 C   0  0  0  0  0  0  0  0  0  0  0  0
    3.8490   41.8140   51.2610 C   0  0  0  0  0  0  0  0  0  0  0  0
    4.7790   41.3260   50.3410 C   0  0  0  0  0  0  0  0  0  0  0  0
    5.8380   42.1290   49.9180 C   0  0  0  0  0  0  0  0  0  0  0  0
    5.9780   43.4300   50.4190 C   0  0  0  0  0  0  0  0  0  0  0  0
    7.1080   44.3120   49.9540 C   0  0  0  0  0  0  0  0  0  0  0  0
    7.0280   45.6200   50.6000 N   0  0  0  0  0  0  0  0  0  0  0  0
    7.9970   46.0600   51.5640 C   0  0  0  0  0  0  0  0  0  0  0  0
    9.3370   46.0210   51.2860 N   0  0  0  0  0  0  0  0  0  0  0  0
   10.2710   46.4430   52.1970 C   0  0  0  0  0  0  0  0  0  0  0  0
    9.8830   46.9180   53.4190 N   0  0  0  0  0  0  0  0  0  0  0  0
    8.5590   46.9580   53.6990 C   0  0  0  0  0  0  0  0  0  0  0  0
    7.9940   47.3930   54.8360 N   0  0  0  0  0  0  0  0  0  0  0  0
    6.6680   47.2200   54.5850 C   0  0  0  0  0  0  0  0  0  0  0  0
    6.4080   46.7050   53.3570 N   0  0  0  0  0  0  0  0  0  0  0  0
    7.6210   46.5460   52.8140 C   0  0  0  0  0  0  0  0  0  0  0  0
    5.0440   43.9190   51.3450 C   0  0  0  0  0  0  0  0  0  0  0  0
    2.0822   44.2026   55.7549 H   0  0  0  0  0  0  0  0  0  0  0  0
    1.4493   45.7130   55.1075 H   0  0  0  0  0  0  0  0  0  0  0  0
    0.2612   43.3085   54.5867 H   0  0  0  0  0  0  0  0  0  0  0  0
    0.2833   44.6208   53.3546 H   0  0  0  0  0  0  0  0  0  0  0  0
    1.8408   42.0294   53.4451 H   0  0  0  0  0  0  0  0  0  0  0  0
    1.1475   42.8979   52.0398 H   0  0  0  0  0  0  0  0  0  0  0  0
    3.0178   41.1720   51.5881 H   0  0  0  0  0  0  0  0  0  0  0  0
    4.6760   40.3037   49.9481 H   0  0  0  0  0  0  0  0  0  0  0  0
    6.5648   41.7402   49.1896 H   0  0  0  0  0  0  0  0  0  0  0  0
    8.0672   43.8385   50.2104 H   0  0  0  0  0  0  0  0  0  0  0  0
    7.0333   44.4453   48.8647 H   0  0  0  0  0  0  0  0  0  0  0  0
    6.2360   46.2480   50.3390 H   0  0  0  0  0  0  0  0  0  0  0  0
   11.3403   46.3991   51.9428 H   0  0  0  0  0  0  0  0  0  0  0  0
    5.8805   47.4739   55.3098 H   0  0  0  0  0  0  0  0  0  0  0  0
    5.4740   46.4900   52.9450 H   0  0  0  0  0  0  0  0  0  0  0  0
    5.1553   44.9391   51.7412 H   0  0  0  0  0  0  0  0  0  0  0  0
  1  2  2  0
  2  3  2  0
  2  4  1  0
  4  5  1  0
  5  6  1  0
  6  7  1  0
  7  8  1  0
  8  9  2  0
  9 10  1  0
 10 11  2  0
 11 12  1  0
 12 13  1  0
 13 14  1  0
 14 15  1  0
 15 16  2  0
 16 17  1  0
 17 18  2  0
 18 19  1  0
 19 20  1  0
 20 21  2  0
 21 22  1  0
 22 23  1  0
 12 24  2  0
  7  2  1  0
 24  8  1  0
 23 15  1  0
 23 19  2  0
  4 25  1  0
  4 26  1  0
  5 27  1  0
  5 28  1  0
  6 29  1  0
  6 30  1  0
  9 31  1  0
 10 32  1  0
 11 33  1  0
 13 34  1  0
 13 35  1  0
 14 36  1  0
 17 37  1  0
 21 38  1  0
 22 39  1  0
 24 40  1  0
M  END
>  <meeko>  (1) 
{"is_sidechain": [false], "free_energy": -8.92, "intermolecular_energy": -11.006, "internal_energy": -1.224}

$$$$
ligand_40_conformer_2_docked
     RDKit          3D

 40 43  0  0  0  0  0  0  0  0999 V2000
    4.7120   46.3850   52.0790 O   0  0  0  0  0  0  0  0  0  0  0  0
    6.1180   46.0860   52.5160 S   0  0  0  0  0  0  0  0  0  0  0  0
    6.1450   45.2460   53.7620 O   0  0  0  0  0  0  0  0  0  0  0  0
    7.0660   47.5560   52.7060 C   0  0  0  0  0  0  0  0  0  0  0  0
    8.4030   47.2400   52.0300 C   0  0  0  0  0  0  0  0  0  0  0  0
    8.1960   46.1890   50.9180 C   0  0  0  0  0  0  0  0  0  0  0  0
    7.0360   45.3680   51.2550 N   0  0  0  0  0  0  0  0  0  0  0  0
    6.6150   44.2040   50.5050 C   0  0  0  0  0  0  0  0  0  0  0  0
    7.3200   43.7950   49.3570 C   0  0  0  0  0  0  0  0  0  0  0  0
    6.9160   42.6680   48.6380 C   0  0  0  0  0  0  0  0  0  0  0  0
    5.8030   41.9330   49.0490 C   0  0  0  0  0  0  0  0  0  0  0  0
    5.0820   42.3250   50.1840 C   0  0  0  0  0  0  0  0  0  0  0  0
    3.8910   41.5280   50.6480 C   0  0  0  0  0  0  0  0  0  0  0  0
    3.4250   42.0170   51.9440 N   0  0  0  0  0  0  0  0  0  0  0  0
    2.3720   42.9850   52.0650 C   0  0  0  0  0  0  0  0  0  0  0  0
    1.3180   42.9940   51.1920 N   0  0  0  0  0  0  0  0  0  0  0  0
    0.3030   43.9110   51.3000 C   0  0  0  0  0  0  0  0  0  0  0  0
    0.3190   44.8480   52.2940 N   0  0  0  0  0  0  0  0  0  0  0  0
    1.3600   44.8440   53.1600 C   0  0  0  0  0  0  0  0  0  0  0  0
    1.5440   45.6800   54.1950 N   0  0  0  0  0  0  0  0  0  0  0  0
    2.7190   45.2370   54.7200 C   0  0  0  0  0  0  0  0  0  0  0  0
    3.2490   44.1790   54.0550 N   0  0  0  0  0  0  0  0  0  0  0  0
    2.3720   43.9490   53.0700 C   0  0  0  0  0  0  0  0  0  0  0  0
    5.4890   43.4580   50.9060 C   0  0  0  0  0  0  0  0  0  0  0  0
    6.5710   48.4045   52.2111 H   0  0  0  0  0  0  0  0  0  0  0  0
    7.1880   47.8416   53.7613 H   0  0  0  0  0  0  0  0  0  0  0  0
    8.8152   48.1599   51.5898 H   0  0  0  0  0  0  0  0  0  0  0  0
    9.1016   46.8402   52.7798 H   0  0  0  0  0  0  0  0  0  0  0  0
    8.0231   46.6965   49.9575 H   0  0  0  0  0  0  0  0  0  0  0  0
    9.0905   45.5544   50.8329 H   0  0  0  0  0  0  0  0  0  0  0  0
    8.1973   44.3685   49.0233 H   0  0  0  0  0  0  0  0  0  0  0  0
    7.4773   42.3583   47.7441 H   0  0  0  0  0  0  0  0  0  0  0  0
    5.4915   41.0443   48.4805 H   0  0  0  0  0  0  0  0  0  0  0  0
    3.0803   41.6252   49.9110 H   0  0  0  0  0  0  0  0  0  0  0  0
    4.1849   40.4728   50.7492 H   0  0  0  0  0  0  0  0  0  0  0  0
    3.8810   41.6380   52.8020 H   0  0  0  0  0  0  0  0  0  0  0  0
   -0.5294   43.8915   50.5812 H   0  0  0  0  0  0  0  0  0  0  0  0
    3.1945   45.6935   55.6006 H   0  0  0  0  0  0  0  0  0  0  0  0
    4.1340   43.6730   54.2730 H   0  0  0  0  0  0  0  0  0  0  0  0
    4.9216   43.7673   51.7962 H   0  0  0  0  0  0  0  0  0  0  0  0
  1  2  2  0
  2  3  2  0
  2  4  1  0
  4  5  1  0
  5  6  1  0
  6  7  1  0
  7  8  1  0
  8  9  2  0
  9 10  1  0
 10 11  2  0
 11 12  1  0
 12 13  1  0
 13 14  1  0
 14 15  1  0
 15 16  2  0
 16 17  1  0
 17 18  2  0
 18 19  1  0
 19 20  1  0
 20 21  2  0
 21 22  1  0
 22 23  1  0
 12 24  2  0
  7  2  1  0
 24  8  1  0
 23 15  1  0
 23 19  2  0
  4 25  1  0
  4 26  1  0
  5 27  1  0
  5 28  1  0
  6 29  1  0
  6 30  1  0
  9 31  1  0
 10 32  1  0
 11 33  1  0
 13 34  1  0
 13 35  1  0
 14 36  1  0
 17 37  1  0
 21 38  1  0
 22 39  1  0
 24 40  1  0
M  END
>  <meeko>  (2) 
{"is_sidechain": [false], "free_energy": -8.407, "intermolecular_energy": -10.436, "internal_energy": -1.161}

$$$$
ligand_40_conformer_2_docked
     RDKit          3D

 40 43  0  0  0  0  0  0  0  0999 V2000
    5.0320   45.0330   54.5910 O   0  0  0  0  0  0  0  0  0  0  0  0
    4.5600   46.2780   53.8960 S   0  0  0  0  0  0  0  0  0  0  0  0
    5.1680   47.5140   54.4970 O   0  0  0  0  0  0  0  0  0  0  0  0
    2.8040   46.3750   53.8560 C   0  0  0  0  0  0  0  0  0  0  0  0
    2.4750   46.7980   52.4220 C   0  0  0  0  0  0  0  0  0  0  0  0
    3.5820   46.3100   51.4620 C   0  0  0  0  0  0  0  0  0  0  0  0
    4.8360   46.2040   52.2030 N   0  0  0  0  0  0  0  0  0  0  0  0
    6.1150   45.8940   51.6000 C   0  0  0  0  0  0  0  0  0  0  0  0
    7.2730   46.6090   51.9610 C   0  0  0  0  0  0  0  0  0  0  0  0
    8.5060   46.3040   51.3820 C   0  0  0  0  0  0  0  0  0  0  0  0
    8.6060   45.2850   50.4340 C   0  0  0  0  0  0  0  0  0  0  0  0
    7.4660   44.5640   50.0540 C   0  0  0  0  0  0  0  0  0  0  0  0
    7.5660   43.4490   49.0450 C   0  0  0  0  0  0  0  0  0  0  0  0
    7.1060   42.1920   49.6320 N   0  0  0  0  0  0  0  0  0  0  0  0
    5.8050   41.6490   49.3590 C   0  0  0  0  0  0  0  0  0  0  0  0
    4.9300   41.3700   50.3740 N   0  0  0  0  0  0  0  0  0  0  0  0
    3.6840   40.8550   50.1260 C   0  0  0  0  0  0  0  0  0  0  0  0
    3.2780   40.6070   48.8440 N   0  0  0  0  0  0  0  0  0  0  0  0
    4.1410   40.8820   47.8360 C   0  0  0  0  0  0  0  0  0  0  0  0
    3.9190   40.7090   46.5230 N   0  0  0  0  0  0  0  0  0  0  0  0
    5.0870   41.1390   45.9730 C   0  0  0  0  0  0  0  0  0  0  0  0
    5.9970   41.5620   46.8870 N   0  0  0  0  0  0  0  0  0  0  0  0
    5.3760   41.3880   48.0600 C   0  0  0  0  0  0  0  0  0  0  0  0
    6.2270   44.8720   50.6360 C   0  0  0  0  0  0  0  0  0  0  0  0
    2.3554   45.3972   54.0854 H   0  0  0  0  0  0  0  0  0  0  0  0
    2.4074   47.0803   54.6011 H   0  0  0  0  0  0  0  0  0  0  0  0
    1.5128   46.3565   52.1233 H   0  0  0  0  0  0  0  0  0  0  0  0
    2.4121   47.8951   52.3738 H   0  0  0  0  0  0  0  0  0  0  0  0
    3.3096   45.3255   51.0539 H   0  0  0  0  0  0  0  0  0  0  0  0
    3.6977   47.0231   50.6325 H   0  0  0  0  0  0  0  0  0  0  0  0
    7.2054   47.4153   52.7061 H   0  0  0  0  0  0  0  0  0  0  0  0
    9.4030   46.8696   51.6744 H   0  0  0  0  0  0  0  0  0  0  0  0
    9.5813   45.0473   49.9842 H   0  0  0  0  0  0  0  0  0  0  0  0
    6.9419   43.6920   48.1724 H   0  0  0  0  0  0  0  0  0  0  0  0
    8.6162   43.3375   48.7373 H   0  0  0  0  0  0  0  0  0  0  0  0
    7.7580   41.6810   50.2660 H   0  0  0  0  0  0  0  0  0  0  0  0
    3.0056   40.6396   50.9647 H   0  0  0  0  0  0  0  0  0  0  0  0
    5.2760   41.1434   44.8894 H   0  0  0  0  0  0  0  0  0  0  0  0
    6.9530   41.9350   46.7020 H   0  0  0  0  0  0  0  0  0  0  0  0
    5.3313   44.3084   50.3359 H   0  0  0  0  0  0  0  0  0  0  0  0
  1  2  2  0
  2  3  2  0
  2  4  1  0
  4  5  1  0
  5  6  1  0
  6  7  1  0
  7  8  1  0
  8  9  2  0
  9 10  1  0
 10 11  2  0
 11 12  1  0
 12 13  1  0
 13 14  1  0
 14 15  1  0
 15 16  2  0
 16 17  1  0
 17 18  2  0
 18 19  1  0
 19 20  1  0
 20 21  2  0
 21 22  1  0
 22 23  1  0
 12 24  2  0
  7  2  1  0
 24  8  1  0
 23 15  1  0
 23 19  2  0
  4 25  1  0
  4 26  1  0
  5 27  1  0
  5 28  1  0
  6 29  1  0
  6 30  1  0
  9 31  1  0
 10 32  1  0
 11 33  1  0
 13 34  1  0
 13 35  1  0
 14 36  1  0
 17 37  1  0
 21 38  1  0
 22 39  1  0
 24 40  1  0
M  END
>  <meeko>  (3) 
{"is_sidechain": [false], "free_energy": -8.184, "intermolecular_energy": -10.812, "internal_energy": -0.509}

$$$$
ligand_40_conformer_2_docked
     RDKit          3D

 40 43  0  0  0  0  0  0  0  0999 V2000
    3.1290   45.7190   54.0000 O   0  0  0  0  0  0  0  0  0  0  0  0
    1.8740   45.2440   53.3280 S   0  0  0  0  0  0  0  0  0  0  0  0
    1.4370   46.1830   52.2390 O   0  0  0  0  0  0  0  0  0  0  0  0
    0.5830   44.9550   54.4890 C   0  0  0  0  0  0  0  0  0  0  0  0
   -0.0190   43.6120   54.0670 C   0  0  0  0  0  0  0  0  0  0  0  0
    1.0530   42.7520   53.3620 C   0  0  0  0  0  0  0  0  0  0  0  0
    2.0360   43.6380   52.7420 N   0  0  0  0  0  0  0  0  0  0  0  0
    3.1160   43.1870   51.8920 C   0  0  0  0  0  0  0  0  0  0  0  0
    3.0590   41.9310   51.2600 C   0  0  0  0  0  0  0  0  0  0  0  0
    4.1000   41.5010   50.4350 C   0  0  0  0  0  0  0  0  0  0  0  0
    5.2150   42.3140   50.2290 C   0  0  0  0  0  0  0  0  0  0  0  0
    5.2980   43.5650   50.8530 C   0  0  0  0  0  0  0  0  0  0  0  0
    6.4890   44.4590   50.6220 C   0  0  0  0  0  0  0  0  0  0  0  0
    6.2170   45.8060   51.1180 N   0  0  0  0  0  0  0  0  0  0  0  0
    6.7900   46.3050   52.3360 C   0  0  0  0  0  0  0  0  0  0  0  0
    6.0000   46.6420   53.4010 N   0  0  0  0  0  0  0  0  0  0  0  0
    6.5360   47.1150   54.5720 C   0  0  0  0  0  0  0  0  0  0  0  0
    7.8880   47.2630   54.7050 N   0  0  0  0  0  0  0  0  0  0  0  0
    8.6740   46.9310   53.6540 C   0  0  0  0  0  0  0  0  0  0  0  0
   10.0140   47.0040   53.6020 N   0  0  0  0  0  0  0  0  0  0  0  0
   10.2800   46.5550   52.3450 C   0  0  0  0  0  0  0  0  0  0  0  0
    9.1700   46.2150   51.6410 N   0  0  0  0  0  0  0  0  0  0  0  0
    8.1650   46.4630   52.4900 C   0  0  0  0  0  0  0  0  0  0  0  0
    4.2510   43.9960   51.6820 C   0  0  0  0  0  0  0  0  0  0  0  0
    0.9853   44.8967   55.5112 H   0  0  0  0  0  0  0  0  0  0  0  0
   -0.1625   45.7639   54.4953 H   0  0  0  0  0  0  0  0  0  0  0  0
   -0.3847   43.0805   54.9579 H   0  0  0  0  0  0  0  0  0  0  0  0
   -0.8526   43.7918   53.3722 H   0  0  0  0  0  0  0  0  0  0  0  0
    1.5514   42.1053   54.0991 H   0  0  0  0  0  0  0  0  0  0  0  0
    0.5806   42.1226   52.5935 H   0  0  0  0  0  0  0  0  0  0  0  0
    2.1854   41.2814   51.4176 H   0  0  0  0  0  0  0  0  0  0  0  0
    4.0409   40.5176   49.9456 H   0  0  0  0  0  0  0  0  0  0  0  0
    6.0306   41.9716   49.5751 H   0  0  0  0  0  0  0  0  0  0  0  0
    7.3603   44.0465   51.1518 H   0  0  0  0  0  0  0  0  0  0  0  0
    6.6933   44.5102   49.5424 H   0  0  0  0  0  0  0  0  0  0  0  0
    5.5850   46.4160   50.5550 H   0  0  0  0  0  0  0  0  0  0  0  0
    5.8729   47.3769   55.4096 H   0  0  0  0  0  0  0  0  0  0  0  0
   11.2987   46.4751   51.9377 H   0  0  0  0  0  0  0  0  0  0  0  0
    9.1270   45.8470   50.6660 H   0  0  0  0  0  0  0  0  0  0  0  0
    4.3169   44.9776   52.1741 H   0  0  0  0  0  0  0  0  0  0  0  0
  1  2  2  0
  2  3  2  0
  2  4  1  0
  4  5  1  0
  5  6  1  0
  6  7  1  0
  7  8  1  0
  8  9  2  0
  9 10  1  0
 10 11  2  0
 11 12  1  0
 12 13  1  0
 13 14  1  0
 14 15  1  0
 15 16  2  0
 16 17  1  0
 17 18  2  0
 18 19  1  0
 19 20  1  0
 20 21  2  0
 21 22  1  0
 22 23  1  0
 12 24  2  0
  7  2  1  0
 24  8  1  0
 23 15  1  0
 23 19  2  0
  4 25  1  0
  4 26  1  0
  5 27  1  0
  5 28  1  0
  6 29  1  0
  6 30  1  0
  9 31  1  0
 10 32  1  0
 11 33  1  0
 13 34  1  0
 13 35  1  0
 14 36  1  0
 17 37  1  0
 21 38  1  0
 22 39  1  0
 24 40  1  0
M  END
>  <meeko>  (4) 
{"is_sidechain": [false], "free_energy": -7.837, "intermolecular_energy": -10.619, "internal_energy": -0.274}

$$$$
ligand_40_conformer_2_docked
     RDKit          3D

 40 43  0  0  0  0  0  0  0  0999 V2000
    3.9190   41.9700   52.5700 O   0  0  0  0  0  0  0  0  0  0  0  0
    4.0150   42.5020   51.1690 S   0  0  0  0  0  0  0  0  0  0  0  0
    2.6990   43.0450   50.6900 O   0  0  0  0  0  0  0  0  0  0  0  0
    4.6600   41.2970   50.0600 C   0  0  0  0  0  0  0  0  0  0  0  0
    5.6900   42.0590   49.2220 C   0  0  0  0  0  0  0  0  0  0  0  0
    6.2650   43.2380   50.0380 C   0  0  0  0  0  0  0  0  0  0  0  0
    5.2680   43.6660   51.0160 N   0  0  0  0  0  0  0  0  0  0  0  0
    5.4100   44.8240   51.8710 C   0  0  0  0  0  0  0  0  0  0  0  0
    6.3220   45.8480   51.5510 C   0  0  0  0  0  0  0  0  0  0  0  0
    6.4540   46.9670   52.3760 C   0  0  0  0  0  0  0  0  0  0  0  0
    5.6830   47.0830   53.5320 C   0  0  0  0  0  0  0  0  0  0  0  0
    4.7740   46.0740   53.8760 C   0  0  0  0  0  0  0  0  0  0  0  0
    3.9220   46.1990   55.1120 C   0  0  0  0  0  0  0  0  0  0  0  0
    3.2530   44.9310   55.3980 N   0  0  0  0  0  0  0  0  0  0  0  0
    1.8240   44.8190   55.4820 C   0  0  0  0  0  0  0  0  0  0  0  0
    1.1070   45.5870   56.3580 N   0  0  0  0  0  0  0  0  0  0  0  0
   -0.2590   45.4930   56.4440 C   0  0  0  0  0  0  0  0  0  0  0  0
   -0.9450   44.6200   55.6460 N   0  0  0  0  0  0  0  0  0  0  0  0
   -0.2390   43.8580   54.7770 C   0  0  0  0  0  0  0  0  0  0  0  0
   -0.7370   42.9550   53.9170 N   0  0  0  0  0  0  0  0  0  0  0  0
    0.3840   42.4960   53.2970 C   0  0  0  0  0  0  0  0  0  0  0  0
    1.5280   43.0770   53.7400 N   0  0  0  0  0  0  0  0  0  0  0  0
    1.1080   43.9350   54.6780 C   0  0  0  0  0  0  0  0  0  0  0  0
    4.6430   44.9490   53.0460 C   0  0  0  0  0  0  0  0  0  0  0  0
    5.1397   40.4764   50.6137 H   0  0  0  0  0  0  0  0  0  0  0  0
    3.8760   40.8362   49.4412 H   0  0  0  0  0  0  0  0  0  0  0  0
    6.5066   41.3779   48.9405 H   0  0  0  0  0  0  0  0  0  0  0  0
    5.2021   42.4496   48.3168 H   0  0  0  0  0  0  0  0  0  0  0  0
    7.1788   42.9160   50.5587 H   0  0  0  0  0  0  0  0  0  0  0  0
    6.5101   44.0730   49.3652 H   0  0  0  0  0  0  0  0  0  0  0  0
    6.9365   45.7657   50.6423 H   0  0  0  0  0  0  0  0  0  0  0  0
    7.1692   47.7602   52.1128 H   0  0  0  0  0  0  0  0  0  0  0  0
    5.7887   47.9689   54.1754 H   0  0  0  0  0  0  0  0  0  0  0  0
    4.5592   46.4736   55.9656 H   0  0  0  0  0  0  0  0  0  0  0  0
    3.1607   46.9752   54.9446 H   0  0  0  0  0  0  0  0  0  0  0  0
    3.8480   44.0860   55.5410 H   0  0  0  0  0  0  0  0  0  0  0  0
   -0.8060   46.1242   57.1598 H   0  0  0  0  0  0  0  0  0  0  0  0
    0.3649   41.7267   52.5110 H   0  0  0  0  0  0  0  0  0  0  0  0
    2.5010   42.8890   53.4140 H   0  0  0  0  0  0  0  0  0  0  0  0
    3.9319   44.1546   53.3169 H   0  0  0  0  0  0  0  0  0  0  0  0
  1  2  2  0
  2  3  2  0
  2  4  1  0
  4  5  1  0
  5  6  1  0
  6  7  1  0
  7  8  1  0
  8  9  2  0
  9 10  1  0
 10 11  2  0
 11 12  1  0
 12 13  1  0
 13 14  1  0
 14 15  1  0
 15 16  2  0
 16 17  1  0
 17 18  2  0
 18 19  1  0
 19 20  1  0
 20 21  2  0
 21 22  1  0
 22 23  1  0
 12 24  2  0
  7  2  1  0
 24  8  1  0
 23 15  1  0
 23 19  2  0
  4 25  1  0
  4 26  1  0
  5 27  1  0
  5 28  1  0
  6 29  1  0
  6 30  1  0
  9 31  1  0
 10 32  1  0
 11 33  1  0
 13 34  1  0
 13 35  1  0
 14 36  1  0
 17 37  1  0
 21 38  1  0
 22 39  1  0
 24 40  1  0
M  END
>  <meeko>  (5) 
{"is_sidechain": [false], "free_energy": -7.828, "intermolecular_energy": -9.804, "internal_energy": -1.078}

$$$$
