ligand_28_conformer_4_docked
     RDKit          3D

 55 60  0  0  0  0  0  0  0  0999 V2000
    9.8310   47.3190   54.7400 C   0  0  0  0  0  0  0  0  0  0  0  0
    9.4840   46.7970   53.3840 C   0  0  0  0  0  0  0  0  0  0  0  0
   10.3390   46.6720   52.2910 C   0  0  0  0  0  0  0  0  0  0  0  0
    9.6650   46.1960   51.2160 N   0  0  0  0  0  0  0  0  0  0  0  0
    8.3970   46.0350   51.6290 C   0  0  0  0  0  0  0  0  0  0  0  0
    7.3680   45.5650   50.8830 N   0  0  0  0  0  0  0  0  0  0  0  0
    6.1300   45.4520   51.4510 C   0  0  0  0  0  0  0  0  0  0  0  0
    5.9110   45.8300   52.8060 C   0  0  0  0  0  0  0  0  0  0  0  0
    4.5600   45.6960   53.4030 C   0  0  0  0  0  0  0  0  0  0  0  0
    4.0440   46.6880   53.9870 O   0  0  0  0  0  0  0  0  0  0  0  0
    3.8370   44.4570   53.3460 N   0  0  0  0  0  0  0  0  0  0  0  0
    2.4430   44.3780   53.7720 C   0  0  1  0  0  0  0  0  0  0  0  0
    1.4460   44.6630   52.6560 C   0  0  2  0  0  0  0  0  0  0  0  0
    0.0430   45.0470   53.1020 C   0  0  0  0  0  0  0  0  0  0  0  0
   -0.4920   43.8920   53.8100 N   0  0  0  0  0  0  0  0  0  0  0  0
   -1.8720   43.8080   54.2120 C   0  0  0  0  0  0  0  0  0  0  0  0
   -2.7260   43.3440   53.4080 O   0  0  0  0  0  0  0  0  0  0  0  0
   -2.3150   44.2320   55.5540 C   0  0  0  0  0  0  0  0  0  0  0  0
   -2.8140   43.2690   56.4680 C   0  0  0  0  0  0  0  0  0  0  0  0
   -3.2590   43.6540   57.7450 C   0  0  0  0  0  0  0  0  0  0  0  0
   -3.2030   45.0050   58.0730 C   0  0  0  0  0  0  0  0  0  0  0  0
   -3.6090   45.5840   59.2170 N   0  0  0  0  0  0  0  0  0  0  0  0
   -3.3640   46.9000   58.9890 C   0  0  0  0  0  0  0  0  0  0  0  0
   -3.6860   47.9130   59.9440 N   0  0  0  0  0  0  0  0  0  0  0  0
   -2.8210   47.1550   57.7690 N   0  0  0  0  0  0  0  0  0  0  0  0
   -2.4970   48.4590   57.1910 C   0  0  0  0  0  0  0  0  0  0  0  0
   -2.7390   45.9420   57.1940 C   0  0  0  0  0  0  0  0  0  0  0  0
   -2.2960   45.5980   55.9150 C   0  0  0  0  0  0  0  0  0  0  0  0
    0.4310   42.7670   53.8350 C   0  0  0  0  0  0  0  0  0  0  0  0
    1.6870   43.2310   53.1130 C   0  0  2  0  0  0  0  0  0  0  0  0
    7.0060   46.3060   53.5660 C   0  0  0  0  0  0  0  0  0  0  0  0
    8.2430   46.3950   52.9350 C   0  0  0  0  0  0  0  0  0  0  0  0
    9.3950   46.6632   55.5080 H   0  0  0  0  0  0  0  0  0  0  0  0
   10.9247   47.3419   54.8553 H   0  0  0  0  0  0  0  0  0  0  0  0
    9.4288   48.3363   54.8553 H   0  0  0  0  0  0  0  0  0  0  0  0
   11.4097   46.9240   52.2995 H   0  0  0  0  0  0  0  0  0  0  0  0
   10.0520   45.9970   50.2670 H   0  0  0  0  0  0  0  0  0  0  0  0
    5.2919   45.0639   50.8534 H   0  0  0  0  0  0  0  0  0  0  0  0
    4.2950   43.5930   52.9800 H   0  0  0  0  0  0  0  0  0  0  0  0
    2.5813   44.7396   54.8016 H   0  0  0  0  0  0  0  0  0  0  0  0
    1.5215   45.2676   51.7402 H   0  0  0  0  0  0  0  0  0  0  0  0
    0.0815   45.9194   53.7709 H   0  0  0  0  0  0  0  0  0  0  0  0
   -0.5892   45.3174   52.2434 H   0  0  0  0  0  0  0  0  0  0  0  0
   -2.8533   42.2096   56.1746 H   0  0  0  0  0  0  0  0  0  0  0  0
   -3.6392   42.9111   58.4616 H   0  0  0  0  0  0  0  0  0  0  0  0
   -2.9980   48.6540   60.2010 H   0  0  0  0  0  0  0  0  0  0  0  0
   -4.6340   47.9370   60.3790 H   0  0  0  0  0  0  0  0  0  0  0  0
   -2.3170   49.1836   57.9988 H   0  0  0  0  0  0  0  0  0  0  0  0
   -1.5935   48.3705   56.5698 H   0  0  0  0  0  0  0  0  0  0  0  0
   -3.3368   48.8036   56.5698 H   0  0  0  0  0  0  0  0  0  0  0  0
   -1.9435   46.3661   55.2109 H   0  0  0  0  0  0  0  0  0  0  0  0
    0.6680   42.4914   54.8732 H   0  0  0  0  0  0  0  0  0  0  0  0
   -0.0048   41.8807   53.3508 H   0  0  0  0  0  0  0  0  0  0  0  0
    2.0241   42.2716   52.6936 H   0  0  0  0  0  0  0  0  0  0  0  0
    6.8833   46.5958   54.6200 H   0  0  0  0  0  0  0  0  0  0  0  0
  1  2  1  0
  2  3  2  0
  3  4  1  0
  4  5  1  0
  5  6  2  0
  6  7  1  0
  7  8  2  0
  8  9  1  0
  9 10  2  0
  9 11  1  0
 11 12  1  0
 12 13  1  0
 13 14  1  0
 14 15  1  0
 15 16  1  0
 16 17  2  0
 16 18  1  0
 18 19  2  0
 19 20  1  0
 20 21  2  0
 21 22  1  0
 22 23  2  0
 23 24  1  0
 23 25  1  0
 25 26  1  0
 25 27  1  0
 27 28  2  0
 15 29  1  0
 29 30  1  0
  8 31  1  0
 31 32  2  0
 32  2  1  0
 32  5  1  0
 30 12  1  0
 30 13  1  0
 28 18  1  0
 27 21  1  0
  1 33  1  0
  1 34  1  0
  1 35  1  0
  3 36  1  0
  4 37  1  0
  7 38  1  0
 11 39  1  0
 12 40  1  1
 13 41  1  6
 14 42  1  0
 14 43  1  0
 19 44  1  0
 20 45  1  0
 24 46  1  0
 24 47  1  0
 26 48  1  0
 26 49  1  0
 26 50  1  0
 28 51  1  0
 29 52  1  0
 29 53  1  0
 30 54  1  6
 31 55  1  0
M  END
>  <meeko>  (1) 
{"is_sidechain": [false], "free_energy": -8.862, "intermolecular_energy": -11.194, "internal_energy": -0.726}

$$$$
ligand_28_conformer_4_docked
     RDKit          3D

 55 60  0  0  0  0  0  0  0  0999 V2000
   -1.3300   49.5990   59.9790 C   0  0  0  0  0  0  0  0  0  0  0  0
   -2.2290   48.4580   59.6280 C   0  0  0  0  0  0  0  0  0  0  0  0
   -3.4720   48.1680   60.1870 C   0  0  0  0  0  0  0  0  0  0  0  0
   -3.9800   47.0350   59.6470 N   0  0  0  0  0  0  0  0  0  0  0  0
   -3.0600   46.6120   58.7640 C   0  0  0  0  0  0  0  0  0  0  0  0
   -3.1530   45.5140   57.9770 N   0  0  0  0  0  0  0  0  0  0  0  0
   -2.1300   45.2190   57.1200 C   0  0  0  0  0  0  0  0  0  0  0  0
   -0.9720   46.0430   57.0540 C   0  0  0  0  0  0  0  0  0  0  0  0
    0.1260   45.7060   56.1140 C   0  0  0  0  0  0  0  0  0  0  0  0
    1.3210   45.8030   56.5040 O   0  0  0  0  0  0  0  0  0  0  0  0
   -0.1450   45.2900   54.7670 N   0  0  0  0  0  0  0  0  0  0  0  0
    0.9200   44.7880   53.9060 C   0  0  1  0  0  0  0  0  0  0  0  0
    0.8970   43.2760   53.7230 C   0  0  2  0  0  0  0  0  0  0  0  0
    2.1950   42.6460   53.2400 C   0  0  0  0  0  0  0  0  0  0  0  0
    2.4450   43.1890   51.9130 N   0  0  0  0  0  0  0  0  0  0  0  0
    3.4840   42.6790   51.0560 C   0  0  0  0  0  0  0  0  0  0  0  0
    3.3110   41.5860   50.4520 O   0  0  0  0  0  0  0  0  0  0  0  0
    4.7460   43.4150   50.8470 C   0  0  0  0  0  0  0  0  0  0  0  0
    5.7090   42.9160   49.9330 C   0  0  0  0  0  0  0  0  0  0  0  0
    6.9260   43.5910   49.7320 C   0  0  0  0  0  0  0  0  0  0  0  0
    7.1550   44.7510   50.4670 C   0  0  0  0  0  0  0  0  0  0  0  0
    8.2580   45.5210   50.4530 N   0  0  0  0  0  0  0  0  0  0  0  0
    7.9640   46.4800   51.3680 C   0  0  0  0  0  0  0  0  0  0  0  0
    8.8880   47.5120   51.7150 N   0  0  0  0  0  0  0  0  0  0  0  0
    6.7360   46.3420   51.9340 N   0  0  0  0  0  0  0  0  0  0  0  0
    6.1410   47.1620   52.9900 C   0  0  0  0  0  0  0  0  0  0  0  0
    6.2400   45.2310   51.3610 C   0  0  0  0  0  0  0  0  0  0  0  0
    5.0250   44.5830   51.5920 C   0  0  0  0  0  0  0  0  0  0  0  0
    1.3990   44.0990   51.4680 C   0  0  0  0  0  0  0  0  0  0  0  0
    0.3960   44.1830   52.6080 C   0  0  2  0  0  0  0  0  0  0  0  0
   -0.9050   47.1910   57.8790 C   0  0  0  0  0  0  0  0  0  0  0  0
   -1.9790   47.4430   58.7270 C   0  0  0  0  0  0  0  0  0  0  0  0
   -1.2602   49.6876   61.0732 H   0  0  0  0  0  0  0  0  0  0  0  0
   -0.3286   49.4188   59.5611 H   0  0  0  0  0  0  0  0  0  0  0  0
   -1.7395   50.5305   59.5611 H   0  0  0  0  0  0  0  0  0  0  0  0
   -3.9702   48.7740   60.9581 H   0  0  0  0  0  0  0  0  0  0  0  0
   -4.8950   46.5860   59.8700 H   0  0  0  0  0  0  0  0  0  0  0  0
   -2.2029   44.3327   56.4726 H   0  0  0  0  0  0  0  0  0  0  0  0
   -1.1170   45.3240   54.3880 H   0  0  0  0  0  0  0  0  0  0  0  0
    1.6894   45.5266   54.1753 H   0  0  0  0  0  0  0  0  0  0  0  0
    0.5245   42.4645   54.3655 H   0  0  0  0  0  0  0  0  0  0  0  0
    3.0202   42.9060   53.9193 H   0  0  0  0  0  0  0  0  0  0  0  0
    2.1212   41.5488   53.2151 H   0  0  0  0  0  0  0  0  0  0  0  0
    5.5015   41.9908   49.3753 H   0  0  0  0  0  0  0  0  0  0  0  0
    7.6728   43.2148   49.0173 H   0  0  0  0  0  0  0  0  0  0  0  0
    9.5850   47.3830   52.4810 H   0  0  0  0  0  0  0  0  0  0  0  0
    8.8930   48.4090   51.1800 H   0  0  0  0  0  0  0  0  0  0  0  0
    6.4314   46.7617   53.9726 H   0  0  0  0  0  0  0  0  0  0  0  0
    6.4991   48.1978   52.8956 H   0  0  0  0  0  0  0  0  0  0  0  0
    5.0452   47.1428   52.8956 H   0  0  0  0  0  0  0  0  0  0  0  0
    4.3074   44.9695   52.3307 H   0  0  0  0  0  0  0  0  0  0  0  0
    1.8219   45.0926   51.2582 H   0  0  0  0  0  0  0  0  0  0  0  0
    0.9243   43.7418   50.5422 H   0  0  0  0  0  0  0  0  0  0  0  0
   -0.5244   44.3587   52.0318 H   0  0  0  0  0  0  0  0  0  0  0  0
   -0.0333   47.8614   57.8508 H   0  0  0  0  0  0  0  0  0  0  0  0
  1  2  1  0
  2  3  2  0
  3  4  1  0
  4  5  1  0
  5  6  2  0
  6  7  1  0
  7  8  2  0
  8  9  1  0
  9 10  2  0
  9 11  1  0
 11 12  1  0
 12 13  1  0
 13 14  1  0
 14 15  1  0
 15 16  1  0
 16 17  2  0
 16 18  1  0
 18 19  2  0
 19 20  1  0
 20 21  2  0
 21 22  1  0
 22 23  2  0
 23 24  1  0
 23 25  1  0
 25 26  1  0
 25 27  1  0
 27 28  2  0
 15 29  1  0
 29 30  1  0
  8 31  1  0
 31 32  2  0
 32  2  1  0
 32  5  1  0
 30 12  1  0
 30 13  1  0
 28 18  1  0
 27 21  1  0
  1 33  1  0
  1 34  1  0
  1 35  1  0
  3 36  1  0
  4 37  1  0
  7 38  1  0
 11 39  1  0
 12 40  1  6
 13 41  1  1
 14 42  1  0
 14 43  1  0
 19 44  1  0
 20 45  1  0
 24 46  1  0
 24 47  1  0
 26 48  1  0
 26 49  1  0
 26 50  1  0
 28 51  1  0
 29 52  1  0
 29 53  1  0
 30 54  1  6
 31 55  1  0
M  END
>  <meeko>  (2) 
{"is_sidechain": [false], "free_energy": -8.6, "intermolecular_energy": -10.804, "internal_energy": -0.785}

$$$$
ligand_28_conformer_4_docked
     RDKit          3D

 55 60  0  0  0  0  0  0  0  0999 V2000
    0.1970   35.3140   47.4760 C   0  0  0  0  0  0  0  0  0  0  0  0
    1.0340   35.5560   46.2630 C   0  0  0  0  0  0  0  0  0  0  0  0
    1.2230   34.6880   45.1890 C   0  0  0  0  0  0  0  0  0  0  0  0
    2.0790   35.2290   44.2890 N   0  0  0  0  0  0  0  0  0  0  0  0
    2.4300   36.4220   44.7980 C   0  0  0  0  0  0  0  0  0  0  0  0
    3.2670   37.3200   44.2250 N   0  0  0  0  0  0  0  0  0  0  0  0
    3.5220   38.4990   44.8690 C   0  0  0  0  0  0  0  0  0  0  0  0
    2.9290   38.7850   46.1300 C   0  0  0  0  0  0  0  0  0  0  0  0
    3.2180   40.0720   46.8100 C   0  0  0  0  0  0  0  0  0  0  0  0
    2.3990   41.0240   46.6980 O   0  0  0  0  0  0  0  0  0  0  0  0
    4.4180   40.2600   47.5750 N   0  0  0  0  0  0  0  0  0  0  0  0
    4.6150   41.4560   48.3860 C   0  0  1  0  0  0  0  0  0  0  0  0
    4.8950   41.1610   49.8540 C   0  0  2  0  0  0  0  0  0  0  0  0
    4.6580   42.3110   50.8200 C   0  0  0  0  0  0  0  0  0  0  0  0
    5.6010   43.3570   50.4520 N   0  0  0  0  0  0  0  0  0  0  0  0
    5.8070   44.5280   51.2640 C   0  0  0  0  0  0  0  0  0  0  0  0
    6.7120   45.3490   50.9530 O   0  0  0  0  0  0  0  0  0  0  0  0
    4.9710   44.8070   52.4470 C   0  0  0  0  0  0  0  0  0  0  0  0
    5.5660   44.8610   53.7340 C   0  0  0  0  0  0  0  0  0  0  0  0
    4.7840   45.1070   54.8770 C   0  0  0  0  0  0  0  0  0  0  0  0
    3.4140   45.2820   54.7020 C   0  0  0  0  0  0  0  0  0  0  0  0
    2.4910   45.4900   55.6580 N   0  0  0  0  0  0  0  0  0  0  0  0
    1.3350   45.5510   54.9470 C   0  0  0  0  0  0  0  0  0  0  0  0
    0.0630   45.7250   55.5730 N   0  0  0  0  0  0  0  0  0  0  0  0
    1.5050   45.4010   53.6070 N   0  0  0  0  0  0  0  0  0  0  0  0
    0.4700   45.3550   52.5750 C   0  0  0  0  0  0  0  0  0  0  0  0
    2.8300   45.2170   53.4690 C   0  0  0  0  0  0  0  0  0  0  0  0
    3.5730   44.9670   52.3130 C   0  0  0  0  0  0  0  0  0  0  0  0
    6.4650   42.9750   49.3440 C   0  0  0  0  0  0  0  0  0  0  0  0
    6.0320   41.5760   48.9310 C   0  0  2  0  0  0  0  0  0  0  0  0
    2.0500   37.8340   46.7010 C   0  0  0  0  0  0  0  0  0  0  0  0
    1.8250   36.6560   45.9980 C   0  0  0  0  0  0  0  0  0  0  0  0
    0.8007   35.4885   48.3788 H   0  0  0  0  0  0  0  0  0  0  0  0
   -0.6625   36.0004   47.4713 H   0  0  0  0  0  0  0  0  0  0  0  0
   -0.1636   34.2748   47.4713 H   0  0  0  0  0  0  0  0  0  0  0  0
    0.7447   33.7028   45.0866 H   0  0  0  0  0  0  0  0  0  0  0  0
    2.3960   34.8080   43.3890 H   0  0  0  0  0  0  0  0  0  0  0  0
    4.1946   39.2360   44.4059 H   0  0  0  0  0  0  0  0  0  0  0  0
    5.1660   39.5310   47.5750 H   0  0  0  0  0  0  0  0  0  0  0  0
    3.9225   42.1173   47.8446 H   0  0  0  0  0  0  0  0  0  0  0  0
    4.6136   40.3162   50.4999 H   0  0  0  0  0  0  0  0  0  0  0  0
    3.6257   42.6794   50.7271 H   0  0  0  0  0  0  0  0  0  0  0  0
    4.8025   41.9923   51.8629 H   0  0  0  0  0  0  0  0  0  0  0  0
    6.6504   44.7089   53.8390 H   0  0  0  0  0  0  0  0  0  0  0  0
    5.2401   45.1594   55.8766 H   0  0  0  0  0  0  0  0  0  0  0  0
   -0.6210   44.9390   55.6410 H   0  0  0  0  0  0  0  0  0  0  0  0
   -0.1870   46.6440   55.9980 H   0  0  0  0  0  0  0  0  0  0  0  0
   -0.5207   45.3110   53.0510 H   0  0  0  0  0  0  0  0  0  0  0  0
    0.5362   46.2570   51.9489 H   0  0  0  0  0  0  0  0  0  0  0  0
    0.6159   44.4625   51.9489 H   0  0  0  0  0  0  0  0  0  0  0  0
    3.0856   44.8968   51.3294 H   0  0  0  0  0  0  0  0  0  0  0  0
    6.3415   43.6756   48.5050 H   0  0  0  0  0  0  0  0  0  0  0  0
    7.5252   42.9965   49.6365 H   0  0  0  0  0  0  0  0  0  0  0  0
    6.9947   41.1834   48.5716 H   0  0  0  0  0  0  0  0  0  0  0  0
    1.5613   38.0207   47.6686 H   0  0  0  0  0  0  0  0  0  0  0  0
  1  2  1  0
  2  3  2  0
  3  4  1  0
  4  5  1  0
  5  6  2  0
  6  7  1  0
  7  8  2  0
  8  9  1  0
  9 10  2  0
  9 11  1  0
 11 12  1  0
 12 13  1  0
 13 14  1  0
 14 15  1  0
 15 16  1  0
 16 17  2  0
 16 18  1  0
 18 19  2  0
 19 20  1  0
 20 21  2  0
 21 22  1  0
 22 23  2  0
 23 24  1  0
 23 25  1  0
 25 26  1  0
 25 27  1  0
 27 28  2  0
 15 29  1  0
 29 30  1  0
  8 31  1  0
 31 32  2  0
 32  2  1  0
 32  5  1  0
 30 12  1  0
 30 13  1  0
 28 18  1  0
 27 21  1  0
  1 33  1  0
  1 34  1  0
  1 35  1  0
  3 36  1  0
  4 37  1  0
  7 38  1  0
 11 39  1  0
 12 40  1  1
 13 41  1  1
 14 42  1  0
 14 43  1  0
 19 44  1  0
 20 45  1  0
 24 46  1  0
 24 47  1  0
 26 48  1  0
 26 49  1  0
 26 50  1  0
 28 51  1  0
 29 52  1  0
 29 53  1  0
 30 54  1  6
 31 55  1  0
M  END
>  <meeko>  (3) 
{"is_sidechain": [false], "free_energy": -8.443, "intermolecular_energy": -10.931, "internal_energy": -0.459}

$$$$
ligand_28_conformer_4_docked
     RDKit          3D

 55 60  0  0  0  0  0  0  0  0999 V2000
    8.2430   38.2680   41.9800 C   0  0  0  0  0  0  0  0  0  0  0  0
    6.7900   38.0580   42.2530 C   0  0  0  0  0  0  0  0  0  0  0  0
    5.9540   37.1150   41.6570 C   0  0  0  0  0  0  0  0  0  0  0  0
    4.6890   37.2420   42.1260 N   0  0  0  0  0  0  0  0  0  0  0  0
    4.7300   38.2620   42.9990 C   0  0  0  0  0  0  0  0  0  0  0  0
    3.6870   38.7360   43.7230 N   0  0  0  0  0  0  0  0  0  0  0  0
    3.8900   39.7810   44.5800 C   0  0  0  0  0  0  0  0  0  0  0  0
    5.1750   40.3790   44.7110 C   0  0  0  0  0  0  0  0  0  0  0  0
    5.3740   41.5110   45.6490 C   0  0  0  0  0  0  0  0  0  0  0  0
    5.2100   42.6900   45.2330 O   0  0  0  0  0  0  0  0  0  0  0  0
    5.7650   41.2910   47.0120 N   0  0  0  0  0  0  0  0  0  0  0  0
    5.7850   42.3870   47.9760 C   0  0  1  0  0  0  0  0  0  0  0  0
    5.8690   41.9250   49.4250 C   0  0  2  0  0  0  0  0  0  0  0  0
    5.4400   42.9420   50.4720 C   0  0  0  0  0  0  0  0  0  0  0  0
    6.3730   44.0540   50.3690 N   0  0  0  0  0  0  0  0  0  0  0  0
    6.4040   45.1240   51.3320 C   0  0  0  0  0  0  0  0  0  0  0  0
    7.2440   46.0560   51.1990 O   0  0  0  0  0  0  0  0  0  0  0  0
    5.4610   45.1740   52.4650 C   0  0  0  0  0  0  0  0  0  0  0  0
    5.9370   44.9840   53.7880 C   0  0  0  0  0  0  0  0  0  0  0  0
    5.0520   45.0080   54.8800 C   0  0  0  0  0  0  0  0  0  0  0  0
    3.7010   45.2120   54.6180 C   0  0  0  0  0  0  0  0  0  0  0  0
    2.6930   45.2350   55.5080 N   0  0  0  0  0  0  0  0  0  0  0  0
    1.6040   45.4280   54.7200 C   0  0  0  0  0  0  0  0  0  0  0  0
    0.2780   45.4800   55.2490 N   0  0  0  0  0  0  0  0  0  0  0  0
    1.8950   45.5350   53.3960 N   0  0  0  0  0  0  0  0  0  0  0  0
    0.9570   45.6850   52.2840 C   0  0  0  0  0  0  0  0  0  0  0  0
    3.2300   45.3810   53.3470 C   0  0  0  0  0  0  0  0  0  0  0  0
    4.0780   45.3550   52.2370 C   0  0  0  0  0  0  0  0  0  0  0  0
    7.4030   43.8370   49.3630 C   0  0  0  0  0  0  0  0  0  0  0  0
    7.1030   42.4860   48.7330 C   0  0  2  0  0  0  0  0  0  0  0  0
    6.2490   39.8570   43.9520 C   0  0  0  0  0  0  0  0  0  0  0  0
    5.9830   38.7890   43.1010 C   0  0  0  0  0  0  0  0  0  0  0  0
    8.7874   38.3467   42.9326 H   0  0  0  0  0  0  0  0  0  0  0  0
    8.6344   37.4171   41.4032 H   0  0  0  0  0  0  0  0  0  0  0  0
    8.3775   39.1949   41.4032 H   0  0  0  0  0  0  0  0  0  0  0  0
    6.2757   36.3729   40.9115 H   0  0  0  0  0  0  0  0  0  0  0  0
    3.8590   36.6670   41.8630 H   0  0  0  0  0  0  0  0  0  0  0  0
    3.0493   40.1650   45.1764 H   0  0  0  0  0  0  0  0  0  0  0  0
    6.0270   40.3350   47.3410 H   0  0  0  0  0  0  0  0  0  0  0  0
    5.1440   43.0862   47.4190 H   0  0  0  0  0  0  0  0  0  0  0  0
    5.5418   40.9992   49.9208 H   0  0  0  0  0  0  0  0  0  0  0  0
    4.4145   43.2856   50.2712 H   0  0  0  0  0  0  0  0  0  0  0  0
    5.4498   42.5046   51.4812 H   0  0  0  0  0  0  0  0  0  0  0  0
    7.0102   44.8161   53.9611 H   0  0  0  0  0  0  0  0  0  0  0  0
    5.4161   44.8699   55.9088 H   0  0  0  0  0  0  0  0  0  0  0  0
    0.0020   46.1980   55.9540 H   0  0  0  0  0  0  0  0  0  0  0  0
   -0.4450   44.8070   54.9100 H   0  0  0  0  0  0  0  0  0  0  0  0
   -0.0568   45.8471   52.6788 H   0  0  0  0  0  0  0  0  0  0  0  0
    1.2530   46.5472   51.6684 H   0  0  0  0  0  0  0  0  0  0  0  0
    0.9693   44.7735   51.6684 H   0  0  0  0  0  0  0  0  0  0  0  0
    3.6817   45.4717   51.2175 H   0  0  0  0  0  0  0  0  0  0  0  0
    7.3651   44.6297   48.6013 H   0  0  0  0  0  0  0  0  0  0  0  0
    8.4087   43.8571   49.8083 H   0  0  0  0  0  0  0  0  0  0  0  0
    8.1253   42.1716   48.4759 H   0  0  0  0  0  0  0  0  0  0  0  0
    7.2606   40.2815   44.0321 H   0  0  0  0  0  0  0  0  0  0  0  0
  1  2  1  0
  2  3  2  0
  3  4  1  0
  4  5  1  0
  5  6  2  0
  6  7  1  0
  7  8  2  0
  8  9  1  0
  9 10  2  0
  9 11  1  0
 11 12  1  0
 12 13  1  0
 13 14  1  0
 14 15  1  0
 15 16  1  0
 16 17  2  0
 16 18  1  0
 18 19  2  0
 19 20  1  0
 20 21  2  0
 21 22  1  0
 22 23  2  0
 23 24  1  0
 23 25  1  0
 25 26  1  0
 25 27  1  0
 27 28  2  0
 15 29  1  0
 29 30  1  0
  8 31  1  0
 31 32  2  0
 32  2  1  0
 32  5  1  0
 30 12  1  0
 30 13  1  0
 28 18  1  0
 27 21  1  0
  1 33  1  0
  1 34  1  0
  1 35  1  0
  3 36  1  0
  4 37  1  0
  7 38  1  0
 11 39  1  0
 12 40  1  1
 13 41  1  6
 14 42  1  0
 14 43  1  0
 19 44  1  0
 20 45  1  0
 24 46  1  0
 24 47  1  0
 26 48  1  0
 26 49  1  0
 26 50  1  0
 28 51  1  0
 29 52  1  0
 29 53  1  0
 30 54  1  6
 31 55  1  0
M  END
>  <meeko>  (4) 
{"is_sidechain": [false], "free_energy": -8.366, "intermolecular_energy": -10.821, "internal_energy": -0.471}

$$$$
ligand_28_conformer_4_docked
     RDKit          3D

 55 60  0  0  0  0  0  0  0  0999 V2000
   10.2300   45.9690   51.5790 C   0  0  0  0  0  0  0  0  0  0  0  0
    9.5920   46.5510   52.7980 C   0  0  0  0  0  0  0  0  0  0  0  0
   10.2400   47.1480   53.8780 C   0  0  0  0  0  0  0  0  0  0  0  0
    9.3410   47.5260   54.8180 N   0  0  0  0  0  0  0  0  0  0  0  0
    8.1410   47.1610   54.3360 C   0  0  0  0  0  0  0  0  0  0  0  0
    6.9440   47.3550   54.9410 N   0  0  0  0  0  0  0  0  0  0  0  0
    5.8050   46.9300   54.3170 C   0  0  0  0  0  0  0  0  0  0  0  0
    5.8640   46.2820   53.0510 C   0  0  0  0  0  0  0  0  0  0  0  0
    4.6140   45.8320   52.3910 C   0  0  0  0  0  0  0  0  0  0  0  0
    4.5750   45.7620   51.1320 O   0  0  0  0  0  0  0  0  0  0  0  0
    3.4460   45.4920   53.1530 N   0  0  0  0  0  0  0  0  0  0  0  0
    2.2840   44.8810   52.5180 C   0  0  1  0  0  0  0  0  0  0  0  0
    1.5470   43.8940   53.4130 C   0  0  2  0  0  0  0  0  0  0  0  0
    0.6380   42.9020   52.7020 C   0  0  0  0  0  0  0  0  0  0  0  0
   -0.4040   43.6900   52.0600 N   0  0  0  0  0  0  0  0  0  0  0  0
   -1.5600   43.0860   51.4510 C   0  0  0  0  0  0  0  0  0  0  0  0
   -2.0630   42.0490   51.9630 O   0  0  0  0  0  0  0  0  0  0  0  0
   -2.1920   43.6610   50.2480 C   0  0  0  0  0  0  0  0  0  0  0  0
   -2.9340   44.8660   50.3490 C   0  0  0  0  0  0  0  0  0  0  0  0
   -3.5600   45.4210   49.2190 C   0  0  0  0  0  0  0  0  0  0  0  0
   -3.4350   44.7450   48.0090 C   0  0  0  0  0  0  0  0  0  0  0  0
   -3.9800   45.0830   46.8260 N   0  0  0  0  0  0  0  0  0  0  0  0
   -3.5740   44.0750   46.0120 C   0  0  0  0  0  0  0  0  0  0  0  0
   -3.9620   43.9990   44.6390 N   0  0  0  0  0  0  0  0  0  0  0  0
   -2.8020   43.1430   46.6330 N   0  0  0  0  0  0  0  0  0  0  0  0
   -2.2570   41.9110   46.0630 C   0  0  0  0  0  0  0  0  0  0  0  0
   -2.7350   43.5770   47.9040 C   0  0  0  0  0  0  0  0  0  0  0  0
   -2.1070   42.9920   49.0060 C   0  0  0  0  0  0  0  0  0  0  0  0
   -0.2760   45.1170   52.3200 C   0  0  0  0  0  0  0  0  0  0  0  0
    0.9700   45.2820   53.1770 C   0  0  2  0  0  0  0  0  0  0  0  0
    7.1260   46.1030   52.4360 C   0  0  0  0  0  0  0  0  0  0  0  0
    8.2490   46.5600   53.1170 C   0  0  0  0  0  0  0  0  0  0  0  0
   11.0118   45.2558   51.8793 H   0  0  0  0  0  0  0  0  0  0  0  0
    9.4687   45.4478   50.9800 H   0  0  0  0  0  0  0  0  0  0  0  0
   10.6793   46.7749   50.9800 H   0  0  0  0  0  0  0  0  0  0  0  0
   11.3278   47.2918   53.9559 H   0  0  0  0  0  0  0  0  0  0  0  0
    9.5400   48.0020   55.7260 H   0  0  0  0  0  0  0  0  0  0  0  0
    4.8296   47.0908   54.7994 H   0  0  0  0  0  0  0  0  0  0  0  0
    3.4180   45.6630   54.1830 H   0  0  0  0  0  0  0  0  0  0  0  0
    2.6724   44.8570   51.4892 H   0  0  0  0  0  0  0  0  0  0  0  0
    1.8874   43.2660   54.2495 H   0  0  0  0  0  0  0  0  0  0  0  0
    1.2065   42.3366   51.9489 H   0  0  0  0  0  0  0  0  0  0  0  0
    0.2112   42.1741   53.4077 H   0  0  0  0  0  0  0  0  0  0  0  0
   -3.0205   45.3716   51.3221 H   0  0  0  0  0  0  0  0  0  0  0  0
   -4.1301   46.3591   49.2891 H   0  0  0  0  0  0  0  0  0  0  0  0
   -3.2780   44.1780   43.8720 H   0  0  0  0  0  0  0  0  0  0  0  0
   -4.9390   43.7340   44.3870 H   0  0  0  0  0  0  0  0  0  0  0  0
   -1.9569   41.2326   46.8752 H   0  0  0  0  0  0  0  0  0  0  0  0
   -3.0235   41.4236   45.4426 H   0  0  0  0  0  0  0  0  0  0  0  0
   -1.3808   42.1503   45.4426 H   0  0  0  0  0  0  0  0  0  0  0  0
   -1.5634   42.0405   48.9102 H   0  0  0  0  0  0  0  0  0  0  0  0
   -0.1644   45.6684   51.3747 H   0  0  0  0  0  0  0  0  0  0  0  0
   -1.1674   45.5135   52.8281 H   0  0  0  0  0  0  0  0  0  0  0  0
    0.6780   46.1692   53.7580 H   0  0  0  0  0  0  0  0  0  0  0  0
    7.2155   45.6187   51.4524 H   0  0  0  0  0  0  0  0  0  0  0  0
  1  2  1  0
  2  3  2  0
  3  4  1  0
  4  5  1  0
  5  6  2  0
  6  7  1  0
  7  8  2  0
  8  9  1  0
  9 10  2  0
  9 11  1  0
 11 12  1  0
 12 13  1  0
 13 14  1  0
 14 15  1  0
 15 16  1  0
 16 17  2  0
 16 18  1  0
 18 19  2  0
 19 20  1  0
 20 21  2  0
 21 22  1  0
 22 23  2  0
 23 24  1  0
 23 25  1  0
 25 26  1  0
 25 27  1  0
 27 28  2  0
 15 29  1  0
 29 30  1  0
  8 31  1  0
 31 32  2  0
 32  2  1  0
 32  5  1  0
 30 12  1  0
 30 13  1  0
 28 18  1  0
 27 21  1  0
  1 33  1  0
  1 34  1  0
  1 35  1  0
  3 36  1  0
  4 37  1  0
  7 38  1  0
 11 39  1  0
 12 40  1  6
 13 41  1  1
 14 42  1  0
 14 43  1  0
 19 44  1  0
 20 45  1  0
 24 46  1  0
 24 47  1  0
 26 48  1  0
 26 49  1  0
 26 50  1  0
 28 51  1  0
 29 52  1  0
 29 53  1  0
 30 54  1  1
 31 55  1  0
M  END
>  <meeko>  (5) 
{"is_sidechain": [false], "free_energy": -8.309, "intermolecular_energy": -10.769, "internal_energy": -0.452}

$$$$
