ligand_41_conformer_1_docked
     RDKit          3D

 43 45  0  0  0  0  0  0  0  0999 V2000
   -0.2970   46.0550   56.9410 C   0  0  0  0  0  0  0  0  0  0  0  0
    0.7580   45.5690   56.0590 N   0  0  0  0  0  0  0  0  0  0  0  0
    2.0480   45.7440   56.3070 N   0  0  0  0  0  0  0  0  0  0  0  0
    2.7430   45.1720   55.3050 C   0  0  0  0  0  0  0  0  0  0  0  0
    1.8630   44.6180   54.3910 C   0  0  0  0  0  0  0  0  0  0  0  0
    2.2270   43.8440   53.1860 C   0  0  0  0  0  0  0  0  0  0  0  0
    1.8850   42.6340   53.0950 O   0  0  0  0  0  0  0  0  0  0  0  0
    2.9940   44.4440   52.1290 N   0  0  0  0  0  0  0  0  0  0  0  0
    4.0480   43.6600   51.4730 C   0  0  0  0  0  0  0  0  0  0  0  0
    5.2620   44.5380   51.1060 C   0  0  0  0  0  0  0  0  0  0  0  0
    4.9190   46.0270   50.8780 C   0  0  0  0  0  0  0  0  0  0  0  0
    5.1370   46.7450   52.0970 O   0  0  0  0  0  0  0  0  0  0  0  0
    6.3780   46.9500   52.7220 C   0  0  0  0  0  0  0  0  0  0  0  0
    6.4710   46.6980   54.0970 C   0  0  0  0  0  0  0  0  0  0  0  0
    7.6800   46.8870   54.7740 C   0  0  0  0  0  0  0  0  0  0  0  0
    8.8110   47.3250   54.0790 C   0  0  0  0  0  0  0  0  0  0  0  0
   10.3270   47.5630   54.9280 Cl  0  0  0  0  0  0  0  0  0  0  0  0
    8.7320   47.5710   52.7050 C   0  0  0  0  0  0  0  0  0  0  0  0
    7.5240   47.3830   52.0250 C   0  0  0  0  0  0  0  0  0  0  0  0
    3.4600   46.1840   50.4170 C   0  0  0  0  0  0  0  0  0  0  0  0
    2.5020   45.6820   51.5040 C   0  0  0  0  0  0  0  0  0  0  0  0
    0.6020   44.8900   54.9000 C   0  0  0  0  0  0  0  0  0  0  0  0
   -0.7180   44.4850   54.3060 C   0  0  0  0  0  0  0  0  0  0  0  0
   -0.7880   44.8940   52.9870 F   0  0  0  0  0  0  0  0  0  0  0  0
   -0.8550   43.1100   54.3710 F   0  0  0  0  0  0  0  0  0  0  0  0
    0.0074   45.9148   57.9887 H   0  0  0  0  0  0  0  0  0  0  0  0
   -0.4713   47.1241   56.7498 H   0  0  0  0  0  0  0  0  0  0  0  0
   -1.2228   45.4926   56.7498 H   0  0  0  0  0  0  0  0  0  0  0  0
    3.8399   45.1487   55.2253 H   0  0  0  0  0  0  0  0  0  0  0  0
    4.3772   42.8626   52.1554 H   0  0  0  0  0  0  0  0  0  0  0  0
    3.6357   43.2368   50.5451 H   0  0  0  0  0  0  0  0  0  0  0  0
    5.9944   44.4738   51.9242 H   0  0  0  0  0  0  0  0  0  0  0  0
    5.6542   44.1538   50.1528 H   0  0  0  0  0  0  0  0  0  0  0  0
    5.5675   46.4337   50.0881 H   0  0  0  0  0  0  0  0  0  0  0  0
    5.5858   46.3486   54.6486 H   0  0  0  0  0  0  0  0  0  0  0  0
    7.7410   46.6908   55.8546 H   0  0  0  0  0  0  0  0  0  0  0  0
    9.6223   47.9134   52.1571 H   0  0  0  0  0  0  0  0  0  0  0  0
    7.4683   47.5737   50.9431 H   0  0  0  0  0  0  0  0  0  0  0  0
    3.2554   47.2458   50.2150 H   0  0  0  0  0  0  0  0  0  0  0  0
    3.3074   45.5906   49.5034 H   0  0  0  0  0  0  0  0  0  0  0  0
    2.4021   46.4574   52.2778 H   0  0  0  0  0  0  0  0  0  0  0  0
    1.5303   45.4683   51.0348 H   0  0  0  0  0  0  0  0  0  0  0  0
   -1.5290   44.9623   54.8757 H   0  0  0  0  0  0  0  0  0  0  0  0
  1  2  1  0
  2  3  1  0
  3  4  2  0
  4  5  1  0
  5  6  1  0
  6  7  2  0
  6  8  1  0
  8  9  1  0
  9 10  1  0
 10 11  1  0
 11 12  1  0
 12 13  1  0
 13 14  2  0
 14 15  1  0
 15 16  2  0
 16 17  1  0
 16 18  1  0
 18 19  2  0
 11 20  1  0
 20 21  1  0
  5 22  2  0
 22 23  1  0
 23 24  1  0
 23 25  1  0
 22  2  1  0
 21  8  1  0
 19 13  1  0
  1 26  1  0
  1 27  1  0
  1 28  1  0
  4 29  1  0
  9 30  1  0
  9 31  1  0
 10 32  1  0
 10 33  1  0
 11 34  1  0
 14 35  1  0
 15 36  1  0
 18 37  1  0
 19 38  1  0
 20 39  1  0
 20 40  1  0
 21 41  1  0
 21 42  1  0
 23 43  1  0
M  END
>  <meeko>  (1) 
{"is_sidechain": [false], "free_energy": -8.178, "intermolecular_energy": -10.09, "internal_energy": -1.012}

$$$$
ligand_41_conformer_1_docked
     RDKit          3D

 43 45  0  0  0  0  0  0  0  0999 V2000
    0.9670   44.6640   52.9960 C   0  0  0  0  0  0  0  0  0  0  0  0
    2.0870   45.5920   52.8900 N   0  0  0  0  0  0  0  0  0  0  0  0
    2.3100   46.3400   51.8200 N   0  0  0  0  0  0  0  0  0  0  0  0
    3.4110   47.0790   52.0540 C   0  0  0  0  0  0  0  0  0  0  0  0
    3.9040   46.7880   53.3140 C   0  0  0  0  0  0  0  0  0  0  0  0
    5.0590   47.4310   53.9720 C   0  0  0  0  0  0  0  0  0  0  0  0
    4.8670   48.2370   54.9220 O   0  0  0  0  0  0  0  0  0  0  0  0
    6.3990   47.1770   53.5200 N   0  0  0  0  0  0  0  0  0  0  0  0
    7.3590   48.2870   53.4570 C   0  0  0  0  0  0  0  0  0  0  0  0
    8.3010   48.1510   52.2430 C   0  0  0  0  0  0  0  0  0  0  0  0
    8.5160   46.6960   51.7690 C   0  0  0  0  0  0  0  0  0  0  0  0
    7.5910   46.4120   50.7130 O   0  0  0  0  0  0  0  0  0  0  0  0
    7.1900   45.1350   50.2900 C   0  0  0  0  0  0  0  0  0  0  0  0
    5.8840   44.7230   50.5880 C   0  0  0  0  0  0  0  0  0  0  0  0
    5.4300   43.4610   50.1970 C   0  0  0  0  0  0  0  0  0  0  0  0
    6.2770   42.5970   49.4960 C   0  0  0  0  0  0  0  0  0  0  0  0
    5.7080   41.0130   49.0040 Cl  0  0  0  0  0  0  0  0  0  0  0  0
    7.5800   43.0010   49.1850 C   0  0  0  0  0  0  0  0  0  0  0  0
    8.0370   44.2640   49.5760 C   0  0  0  0  0  0  0  0  0  0  0  0
    8.3180   45.7110   52.9330 C   0  0  0  0  0  0  0  0  0  0  0  0
    6.8790   45.7870   53.4570 C   0  0  0  0  0  0  0  0  0  0  0  0
    3.0360   45.8320   53.8230 C   0  0  0  0  0  0  0  0  0  0  0  0
    3.0990   45.1870   55.1790 C   0  0  0  0  0  0  0  0  0  0  0  0
    4.3800   44.7300   55.4260 F   0  0  0  0  0  0  0  0  0  0  0  0
    2.7410   46.1070   56.1480 F   0  0  0  0  0  0  0  0  0  0  0  0
    0.7435   44.4788   54.0570 H   0  0  0  0  0  0  0  0  0  0  0  0
    0.0834   45.0982   52.5055 H   0  0  0  0  0  0  0  0  0  0  0  0
    1.2294   43.7150   52.5055 H   0  0  0  0  0  0  0  0  0  0  0  0
    3.8508   47.8025   51.3518 H   0  0  0  0  0  0  0  0  0  0  0  0
    6.8056   49.2341   53.3757 H   0  0  0  0  0  0  0  0  0  0  0  0
    7.9696   48.2677   54.3717 H   0  0  0  0  0  0  0  0  0  0  0  0
    7.8737   48.7263   51.4084 H   0  0  0  0  0  0  0  0  0  0  0  0
    9.2839   48.5287   52.5612 H   0  0  0  0  0  0  0  0  0  0  0  0
    9.5461   46.5802   51.4010 H   0  0  0  0  0  0  0  0  0  0  0  0
    5.2104   45.3994   51.1346 H   0  0  0  0  0  0  0  0  0  0  0  0
    4.4046   43.1465   50.4410 H   0  0  0  0  0  0  0  0  0  0  0  0
    8.2469   42.3236   48.6315 H   0  0  0  0  0  0  0  0  0  0  0  0
    9.0609   44.5783   49.3253 H   0  0  0  0  0  0  0  0  0  0  0  0
    8.5226   44.6888   52.5819 H   0  0  0  0  0  0  0  0  0  0  0  0
    9.0091   45.9759   53.7468 H   0  0  0  0  0  0  0  0  0  0  0  0
    6.2236   45.2129   52.7855 H   0  0  0  0  0  0  0  0  0  0  0  0
    6.8605   45.3697   54.4746 H   0  0  0  0  0  0  0  0  0  0  0  0
    2.4018   44.3365   55.2047 H   0  0  0  0  0  0  0  0  0  0  0  0
  1  2  1  0
  2  3  1  0
  3  4  2  0
  4  5  1  0
  5  6  1  0
  6  7  2  0
  6  8  1  0
  8  9  1  0
  9 10  1  0
 10 11  1  0
 11 12  1  0
 12 13  1  0
 13 14  2  0
 14 15  1  0
 15 16  2  0
 16 17  1  0
 16 18  1  0
 18 19  2  0
 11 20  1  0
 20 21  1  0
  5 22  2  0
 22 23  1  0
 23 24  1  0
 23 25  1  0
 22  2  1  0
 21  8  1  0
 19 13  1  0
  1 26  1  0
  1 27  1  0
  1 28  1  0
  4 29  1  0
  9 30  1  0
  9 31  1  0
 10 32  1  0
 10 33  1  0
 11 34  1  0
 14 35  1  0
 15 36  1  0
 18 37  1  0
 19 38  1  0
 20 39  1  0
 20 40  1  0
 21 41  1  0
 21 42  1  0
 23 43  1  0
M  END
>  <meeko>  (2) 
{"is_sidechain": [false], "free_energy": -7.896, "intermolecular_energy": -10.002, "internal_energy": -0.753}

$$$$
ligand_41_conformer_1_docked
     RDKit          3D

 43 45  0  0  0  0  0  0  0  0999 V2000
    5.3400   41.0590   49.1240 C   0  0  0  0  0  0  0  0  0  0  0  0
    5.2970   42.2190   50.0080 N   0  0  0  0  0  0  0  0  0  0  0  0
    4.3780   42.3790   50.9480 N   0  0  0  0  0  0  0  0  0  0  0  0
    4.6310   43.5420   51.5790 C   0  0  0  0  0  0  0  0  0  0  0  0
    5.7470   44.1380   51.0170 C   0  0  0  0  0  0  0  0  0  0  0  0
    6.3880   45.3910   51.4660 C   0  0  0  0  0  0  0  0  0  0  0  0
    7.5130   45.7170   51.0020 O   0  0  0  0  0  0  0  0  0  0  0  0
    5.7600   46.2270   52.4530 N   0  0  0  0  0  0  0  0  0  0  0  0
    6.5850   46.8530   53.4930 C   0  0  0  0  0  0  0  0  0  0  0  0
    5.8440   46.9100   54.8450 C   0  0  0  0  0  0  0  0  0  0  0  0
    4.3040   46.9440   54.7210 C   0  0  0  0  0  0  0  0  0  0  0  0
    3.8010   45.6080   54.8330 O   0  0  0  0  0  0  0  0  0  0  0  0
    2.4570   45.2470   55.0160 C   0  0  0  0  0  0  0  0  0  0  0  0
    1.8460   44.4620   54.0290 C   0  0  0  0  0  0  0  0  0  0  0  0
    0.5090   44.0750   54.1550 C   0  0  0  0  0  0  0  0  0  0  0  0
   -0.2310   44.4650   55.2750 C   0  0  0  0  0  0  0  0  0  0  0  0
   -1.9090   43.9790   55.4330 Cl  0  0  0  0  0  0  0  0  0  0  0  0
    0.3700   45.2410   56.2710 C   0  0  0  0  0  0  0  0  0  0  0  0
    1.7080   45.6300   56.1470 C   0  0  0  0  0  0  0  0  0  0  0  0
    3.8820   47.5650   53.3790 C   0  0  0  0  0  0  0  0  0  0  0  0
    4.3910   46.7090   52.2120 C   0  0  0  0  0  0  0  0  0  0  0  0
    6.1480   43.2680   50.0140 C   0  0  0  0  0  0  0  0  0  0  0  0
    7.3350   43.4260   49.1050 C   0  0  0  0  0  0  0  0  0  0  0  0
    8.3840   42.6460   49.5560 F   0  0  0  0  0  0  0  0  0  0  0  0
    6.9920   43.0420   47.8210 F   0  0  0  0  0  0  0  0  0  0  0  0
    5.3741   40.1396   49.7269 H   0  0  0  0  0  0  0  0  0  0  0  0
    4.4416   41.0482   48.4893 H   0  0  0  0  0  0  0  0  0  0  0  0
    6.2367   41.1147   48.4893 H   0  0  0  0  0  0  0  0  0  0  0  0
    4.0421   43.9542   52.4117 H   0  0  0  0  0  0  0  0  0  0  0  0
    7.5088   46.2687   53.6162 H   0  0  0  0  0  0  0  0  0  0  0  0
    6.8116   47.8829   53.1801 H   0  0  0  0  0  0  0  0  0  0  0  0
    6.1237   46.0212   55.4297 H   0  0  0  0  0  0  0  0  0  0  0  0
    6.1434   47.8504   55.3307 H   0  0  0  0  0  0  0  0  0  0  0  0
    3.8858   47.5656   55.5265 H   0  0  0  0  0  0  0  0  0  0  0  0
    2.4238   44.1476   53.1473 H   0  0  0  0  0  0  0  0  0  0  0  0
    0.0383   43.4627   53.3717 H   0  0  0  0  0  0  0  0  0  0  0  0
   -0.2106   45.5462   57.1540 H   0  0  0  0  0  0  0  0  0  0  0  0
    2.1774   46.2371   56.9351 H   0  0  0  0  0  0  0  0  0  0  0  0
    2.7844   47.6224   53.3350 H   0  0  0  0  0  0  0  0  0  0  0  0
    4.3159   48.5727   53.2992 H   0  0  0  0  0  0  0  0  0  0  0  0
    3.7242   45.8432   52.0865 H   0  0  0  0  0  0  0  0  0  0  0  0
    4.3993   47.3319   51.3054 H   0  0  0  0  0  0  0  0  0  0  0  0
    7.6458   44.4812   49.1021 H   0  0  0  0  0  0  0  0  0  0  0  0
  1  2  1  0
  2  3  1  0
  3  4  2  0
  4  5  1  0
  5  6  1  0
  6  7  2  0
  6  8  1  0
  8  9  1  0
  9 10  1  0
 10 11  1  0
 11 12  1  0
 12 13  1  0
 13 14  2  0
 14 15  1  0
 15 16  2  0
 16 17  1  0
 16 18  1  0
 18 19  2  0
 11 20  1  0
 20 21  1  0
  5 22  2  0
 22 23  1  0
 23 24  1  0
 23 25  1  0
 22  2  1  0
 21  8  1  0
 19 13  1  0
  1 26  1  0
  1 27  1  0
  1 28  1  0
  4 29  1  0
  9 30  1  0
  9 31  1  0
 10 32  1  0
 10 33  1  0
 11 34  1  0
 14 35  1  0
 15 36  1  0
 18 37  1  0
 19 38  1  0
 20 39  1  0
 20 40  1  0
 21 41  1  0
 21 42  1  0
 23 43  1  0
M  END
>  <meeko>  (3) 
{"is_sidechain": [false], "free_energy": -7.565, "intermolecular_energy": -10.153, "internal_energy": -0.194}

$$$$
ligand_41_conformer_1_docked
     RDKit          3D

 43 45  0  0  0  0  0  0  0  0999 V2000
    9.3120   47.5800   54.8950 C   0  0  0  0  0  0  0  0  0  0  0  0
    8.0850   47.1170   54.2560 N   0  0  0  0  0  0  0  0  0  0  0  0
    6.8960   47.1870   54.8360 N   0  0  0  0  0  0  0  0  0  0  0  0
    5.9870   46.6850   53.9780 C   0  0  0  0  0  0  0  0  0  0  0  0
    6.6230   46.2820   52.8160 C   0  0  0  0  0  0  0  0  0  0  0  0
    5.9720   45.7400   51.6060 C   0  0  0  0  0  0  0  0  0  0  0  0
    6.4090   46.0580   50.4670 O   0  0  0  0  0  0  0  0  0  0  0  0
    4.8250   44.8810   51.7090 N   0  0  0  0  0  0  0  0  0  0  0  0
    3.7170   45.0450   50.7600 C   0  0  0  0  0  0  0  0  0  0  0  0
    2.3520   44.8010   51.4360 C   0  0  0  0  0  0  0  0  0  0  0  0
    2.4110   43.8540   52.6560 C   0  0  0  0  0  0  0  0  0  0  0  0
    2.5310   44.6400   53.8460 O   0  0  0  0  0  0  0  0  0  0  0  0
    1.4990   44.9190   54.7560 C   0  0  0  0  0  0  0  0  0  0  0  0
    0.1800   44.6780   54.3490 C   0  0  0  0  0  0  0  0  0  0  0  0
   -0.8890   44.9410   55.2090 C   0  0  0  0  0  0  0  0  0  0  0  0
   -0.6500   45.4430   56.4920 C   0  0  0  0  0  0  0  0  0  0  0  0
   -1.9920   45.7730   57.5720 Cl  0  0  0  0  0  0  0  0  0  0  0  0
    0.6630   45.6800   56.9120 C   0  0  0  0  0  0  0  0  0  0  0  0
    1.7350   45.4180   56.0530 C   0  0  0  0  0  0  0  0  0  0  0  0
    3.5970   42.8830   52.5320 C   0  0  0  0  0  0  0  0  0  0  0  0
    4.9200   43.6580   52.5220 C   0  0  0  0  0  0  0  0  0  0  0  0
    7.9640   46.5700   53.0260 C   0  0  0  0  0  0  0  0  0  0  0  0
    9.0950   46.3530   52.0600 C   0  0  0  0  0  0  0  0  0  0  0  0
    9.5380   47.5680   51.5690 F   0  0  0  0  0  0  0  0  0  0  0  0
   10.1360   45.7060   52.7010 F   0  0  0  0  0  0  0  0  0  0  0  0
    9.1954   47.5360   55.9879 H   0  0  0  0  0  0  0  0  0  0  0  0
   10.1500   46.9363   54.5895 H   0  0  0  0  0  0  0  0  0  0  0  0
    9.5158   48.6169   54.5895 H   0  0  0  0  0  0  0  0  0  0  0  0
    4.9068   46.6073   54.1706 H   0  0  0  0  0  0  0  0  0  0  0  0
    3.7390   46.0689   50.3585 H   0  0  0  0  0  0  0  0  0  0  0  0
    3.8402   44.3056   49.9549 H   0  0  0  0  0  0  0  0  0  0  0  0
    1.9542   45.7705   51.7704 H   0  0  0  0  0  0  0  0  0  0  0  0
    1.7105   44.3133   50.6873 H   0  0  0  0  0  0  0  0  0  0  0  0
    1.4892   43.2554   52.6995 H   0  0  0  0  0  0  0  0  0  0  0  0
   -0.0155   44.2781   53.3431 H   0  0  0  0  0  0  0  0  0  0  0  0
   -1.9205   44.7529   54.8763 H   0  0  0  0  0  0  0  0  0  0  0  0
    0.8530   46.0738   57.9214 H   0  0  0  0  0  0  0  0  0  0  0  0
    2.7656   45.6019   56.3906 H   0  0  0  0  0  0  0  0  0  0  0  0
    3.5891   42.1895   53.3858 H   0  0  0  0  0  0  0  0  0  0  0  0
    3.5035   42.3222   51.5903 H   0  0  0  0  0  0  0  0  0  0  0  0
    5.1794   43.9349   53.5545 H   0  0  0  0  0  0  0  0  0  0  0  0
    5.6941   43.0118   52.0824 H   0  0  0  0  0  0  0  0  0  0  0  0
    8.7380   45.7348   51.2231 H   0  0  0  0  0  0  0  0  0  0  0  0
  1  2  1  0
  2  3  1  0
  3  4  2  0
  4  5  1  0
  5  6  1  0
  6  7  2  0
  6  8  1  0
  8  9  1  0
  9 10  1  0
 10 11  1  0
 11 12  1  0
 12 13  1  0
 13 14  2  0
 14 15  1  0
 15 16  2  0
 16 17  1  0
 16 18  1  0
 18 19  2  0
 11 20  1  0
 20 21  1  0
  5 22  2  0
 22 23  1  0
 23 24  1  0
 23 25  1  0
 22  2  1  0
 21  8  1  0
 19 13  1  0
  1 26  1  0
  1 27  1  0
  1 28  1  0
  4 29  1  0
  9 30  1  0
  9 31  1  0
 10 32  1  0
 10 33  1  0
 11 34  1  0
 14 35  1  0
 15 36  1  0
 18 37  1  0
 19 38  1  0
 20 39  1  0
 20 40  1  0
 21 41  1  0
 21 42  1  0
 23 43  1  0
M  END
>  <meeko>  (4) 
{"is_sidechain": [false], "free_energy": -7.494, "intermolecular_energy": -9.829, "internal_energy": -0.43}

$$$$
ligand_41_conformer_1_docked
     RDKit          3D

 43 45  0  0  0  0  0  0  0  0999 V2000
    7.7330   46.8470   53.7680 C   0  0  0  0  0  0  0  0  0  0  0  0
    6.3090   46.8340   53.4480 N   0  0  0  0  0  0  0  0  0  0  0  0
    5.4140   47.5600   54.1010 N   0  0  0  0  0  0  0  0  0  0  0  0
    4.2070   47.3190   53.5520 C   0  0  0  0  0  0  0  0  0  0  0  0
    4.3440   46.4070   52.5200 C   0  0  0  0  0  0  0  0  0  0  0  0
    3.2680   45.9310   51.6260 C   0  0  0  0  0  0  0  0  0  0  0  0
    3.1610   46.4150   50.4670 O   0  0  0  0  0  0  0  0  0  0  0  0
    2.3210   44.9480   52.0730 N   0  0  0  0  0  0  0  0  0  0  0  0
    0.9070   45.0930   51.7040 C   0  0  0  0  0  0  0  0  0  0  0  0
   -0.0260   44.6320   52.8440 C   0  0  0  0  0  0  0  0  0  0  0  0
    0.5970   43.5720   53.7800 C   0  0  0  0  0  0  0  0  0  0  0  0
    1.1720   44.2340   54.9120 O   0  0  0  0  0  0  0  0  0  0  0  0
    0.4840   45.0430   55.8300 C   0  0  0  0  0  0  0  0  0  0  0  0
    1.2350   45.7310   56.7920 C   0  0  0  0  0  0  0  0  0  0  0  0
    0.6040   46.5490   57.7340 C   0  0  0  0  0  0  0  0  0  0  0  0
   -0.7860   46.6910   57.7210 C   0  0  0  0  0  0  0  0  0  0  0  0
   -1.5780   47.7160   58.9040 Cl  0  0  0  0  0  0  0  0  0  0  0  0
   -1.5450   46.0150   56.7600 C   0  0  0  0  0  0  0  0  0  0  0  0
   -0.9170   45.1960   55.8160 C   0  0  0  0  0  0  0  0  0  0  0  0
    1.6650   42.7530   53.0370 C   0  0  0  0  0  0  0  0  0  0  0  0
    2.8160   43.6620   52.5890 C   0  0  0  0  0  0  0  0  0  0  0  0
    5.6990   46.1150   52.4800 C   0  0  0  0  0  0  0  0  0  0  0  0
    6.3950   45.1920   51.5180 C   0  0  0  0  0  0  0  0  0  0  0  0
    5.8470   43.9250   51.5980 F   0  0  0  0  0  0  0  0  0  0  0  0
    6.2590   45.6750   50.2290 F   0  0  0  0  0  0  0  0  0  0  0  0
    7.8634   46.8482   54.8602 H   0  0  0  0  0  0  0  0  0  0  0  0
    8.2126   45.9532   53.3425 H   0  0  0  0  0  0  0  0  0  0  0  0
    8.1962   47.7494   53.3425 H   0  0  0  0  0  0  0  0  0  0  0  0
    3.2598   47.7762   53.8742 H   0  0  0  0  0  0  0  0  0  0  0  0
    0.7027   46.1505   51.4806 H   0  0  0  0  0  0  0  0  0  0  0  0
    0.7139   44.4621   50.8239 H   0  0  0  0  0  0  0  0  0  0  0  0
   -0.2939   45.5114   53.4480 H   0  0  0  0  0  0  0  0  0  0  0  0
   -0.8990   44.1611   52.3684 H   0  0  0  0  0  0  0  0  0  0  0  0
   -0.1859   42.8767   54.1171 H   0  0  0  0  0  0  0  0  0  0  0  0
    2.3300   45.6268   56.8063 H   0  0  0  0  0  0  0  0  0  0  0  0
    1.2031   47.0820   58.4870 H   0  0  0  0  0  0  0  0  0  0  0  0
   -2.6391   46.1278   56.7466 H   0  0  0  0  0  0  0  0  0  0  0  0
   -1.5185   44.6696   55.0602 H   0  0  0  0  0  0  0  0  0  0  0  0
    2.0573   41.9746   53.7080 H   0  0  0  0  0  0  0  0  0  0  0  0
    1.2082   42.2902   52.1498 H   0  0  0  0  0  0  0  0  0  0  0  0
    3.4758   43.8523   53.4483 H   0  0  0  0  0  0  0  0  0  0  0  0
    3.3612   43.1536   51.7801 H   0  0  0  0  0  0  0  0  0  0  0  0
    7.4623   45.1400   51.7793 H   0  0  0  0  0  0  0  0  0  0  0  0
  1  2  1  0
  2  3  1  0
  3  4  2  0
  4  5  1  0
  5  6  1  0
  6  7  2  0
  6  8  1  0
  8  9  1  0
  9 10  1  0
 10 11  1  0
 11 12  1  0
 12 13  1  0
 13 14  2  0
 14 15  1  0
 15 16  2  0
 16 17  1  0
 16 18  1  0
 18 19  2  0
 11 20  1  0
 20 21  1  0
  5 22  2  0
 22 23  1  0
 23 24  1  0
 23 25  1  0
 22  2  1  0
 21  8  1  0
 19 13  1  0
  1 26  1  0
  1 27  1  0
  1 28  1  0
  4 29  1  0
  9 30  1  0
  9 31  1  0
 10 32  1  0
 10 33  1  0
 11 34  1  0
 14 35  1  0
 15 36  1  0
 18 37  1  0
 19 38  1  0
 20 39  1  0
 20 40  1  0
 21 41  1  0
 21 42  1  0
 23 43  1  0
M  END
>  <meeko>  (5) 
{"is_sidechain": [false], "free_energy": -7.389, "intermolecular_energy": -9.439, "internal_energy": -0.69}

$$$$
