ligand_23_conformer_4_docked
     RDKit          3D

 45 47  0  0  0  0  0  0  0  0999 V2000
    0.0080   41.4910   53.7010 C   0  0  0  0  0  0  0  0  0  0  0  0
    0.0900   42.7280   52.7890 C   0  0  2  0  0  0  0  0  0  0  0  0
    1.4860   43.1600   52.6580 N   0  0  0  0  0  0  0  0  0  0  0  0
    2.1500   43.2370   51.3840 C   0  0  0  0  0  0  0  0  0  0  0  0
    1.6300   42.6860   50.3760 O   0  0  0  0  0  0  0  0  0  0  0  0
    3.4450   43.9430   51.2410 C   0  0  0  0  0  0  0  0  0  0  0  0
    3.4830   45.3490   51.2240 C   0  0  0  0  0  0  0  0  0  0  0  0
    4.7010   46.0240   51.0950 C   0  0  0  0  0  0  0  0  0  0  0  0
    5.8980   45.3120   50.9790 C   0  0  0  0  0  0  0  0  0  0  0  0
    7.0990   46.0270   50.8670 O   0  0  0  0  0  0  0  0  0  0  0  0
    7.9570   46.3470   51.9300 C   0  0  0  0  0  0  0  0  0  0  0  0
    9.3570   46.3300   51.7880 C   0  0  0  0  0  0  0  0  0  0  0  0
   10.1790   46.6710   52.8670 C   0  0  0  0  0  0  0  0  0  0  0  0
    9.6110   47.0420   54.0910 C   0  0  0  0  0  0  0  0  0  0  0  0
   10.6420   47.4670   55.4440 Cl  0  0  0  0  0  0  0  0  0  0  0  0
    8.2200   47.0790   54.2300 C   0  0  0  0  0  0  0  0  0  0  0  0
    7.3970   46.7410   53.1510 C   0  0  0  0  0  0  0  0  0  0  0  0
    5.8700   43.9080   51.0300 C   0  0  0  0  0  0  0  0  0  0  0  0
    4.6530   43.2300   51.1570 C   0  0  0  0  0  0  0  0  0  0  0  0
   -0.7940   43.9210   53.2630 C   0  0  1  0  0  0  0  0  0  0  0  0
   -1.2880   43.7790   54.6930 C   0  0  0  0  0  0  0  0  0  0  0  0
   -0.4250   44.7250   55.5190 C   0  0  0  0  0  0  0  0  0  0  0  0
    0.3100   45.6110   54.6120 N   0  0  0  0  0  0  0  0  0  0  0  0
   -0.0790   45.2710   53.2440 C   0  0  0  0  0  0  0  0  0  0  0  0
    0.0291   41.8095   54.7537 H   0  0  0  0  0  0  0  0  0  0  0  0
   -0.9280   40.9491   53.5006 H   0  0  0  0  0  0  0  0  0  0  0  0
    0.8643   40.8303   53.5006 H   0  0  0  0  0  0  0  0  0  0  0  0
   -0.3104   42.4182   51.8124 H   0  0  0  0  0  0  0  0  0  0  0  0
    2.0340   43.3720   53.5220 H   0  0  0  0  0  0  0  0  0  0  0  0
    2.5480   45.9217   51.3128 H   0  0  0  0  0  0  0  0  0  0  0  0
    4.7170   47.1238   51.0848 H   0  0  0  0  0  0  0  0  0  0  0  0
    9.8066   46.0474   50.8247 H   0  0  0  0  0  0  0  0  0  0  0  0
   11.2729   46.6476   52.7534 H   0  0  0  0  0  0  0  0  0  0  0  0
    7.7721   47.3746   55.1902 H   0  0  0  0  0  0  0  0  0  0  0  0
    6.3035   46.7850   53.2624 H   0  0  0  0  0  0  0  0  0  0  0  0
    6.8097   43.3393   50.9698 H   0  0  0  0  0  0  0  0  0  0  0  0
    4.6416   42.1306   51.1914 H   0  0  0  0  0  0  0  0  0  0  0  0
   -1.6197   43.8922   52.5368 H   0  0  0  0  0  0  0  0  0  0  0  0
   -2.3478   44.0652   54.7636 H   0  0  0  0  0  0  0  0  0  0  0  0
   -1.2113   42.7412   55.0495 H   0  0  0  0  0  0  0  0  0  0  0  0
   -1.0654   45.3247   56.1825 H   0  0  0  0  0  0  0  0  0  0  0  0
    0.2834   44.1459   56.1296 H   0  0  0  0  0  0  0  0  0  0  0  0
    1.3350   45.4270   54.7230 H   0  0  0  0  0  0  0  0  0  0  0  0
   -0.7551   46.0431   52.8480 H   0  0  0  0  0  0  0  0  0  0  0  0
    0.8125   45.2156   52.6021 H   0  0  0  0  0  0  0  0  0  0  0  0
  1  2  1  0
  2  3  1  0
  3  4  1  0
  4  5  2  0
  4  6  1  0
  6  7  2  0
  7  8  1  0
  8  9  2  0
  9 10  1  0
 10 11  1  0
 11 12  2  0
 12 13  1  0
 13 14  2  0
 14 15  1  0
 14 16  1  0
 16 17  2  0
  9 18  1  0
 18 19  2  0
  2 20  1  0
 20 21  1  0
 21 22  1  0
 22 23  1  0
 23 24  1  0
 19  6  1  0
 24 20  1  0
 17 11  1  0
  1 25  1  0
  1 26  1  0
  1 27  1  0
  2 28  1  6
  3 29  1  0
  7 30  1  0
  8 31  1  0
 12 32  1  0
 13 33  1  0
 16 34  1  0
 17 35  1  0
 18 36  1  0
 19 37  1  0
 20 38  1  6
 21 39  1  0
 21 40  1  0
 22 41  1  0
 22 42  1  0
 23 43  1  0
 24 44  1  0
 24 45  1  0
M  END
>  <meeko>  (1) 
{"is_sidechain": [false], "free_energy": -8.67, "intermolecular_energy": -11.204, "internal_energy": -0.955}

$$$$
ligand_23_conformer_4_docked
     RDKit          3D

 45 47  0  0  0  0  0  0  0  0999 V2000
   -2.4600   45.1780   52.9510 C   0  0  0  0  0  0  0  0  0  0  0  0
   -1.1880   44.3890   53.3070 C   0  0  2  0  0  0  0  0  0  0  0  0
   -0.0210   45.2790   53.2720 N   0  0  0  0  0  0  0  0  0  0  0  0
    1.0060   45.2410   54.2780 C   0  0  0  0  0  0  0  0  0  0  0  0
    0.7970   44.6210   55.3570 O   0  0  0  0  0  0  0  0  0  0  0  0
    2.3010   45.9310   54.0720 C   0  0  0  0  0  0  0  0  0  0  0  0
    2.5390   46.6410   52.8820 C   0  0  0  0  0  0  0  0  0  0  0  0
    3.7560   47.3010   52.6820 C   0  0  0  0  0  0  0  0  0  0  0  0
    4.7540   47.2620   53.6600 C   0  0  0  0  0  0  0  0  0  0  0  0
    5.9540   47.9490   53.4260 O   0  0  0  0  0  0  0  0  0  0  0  0
    7.1300   47.3790   52.9170 C   0  0  0  0  0  0  0  0  0  0  0  0
    7.1230   46.5380   51.7880 C   0  0  0  0  0  0  0  0  0  0  0  0
    8.3200   46.0030   51.3010 C   0  0  0  0  0  0  0  0  0  0  0  0
    9.5320   46.3110   51.9280 C   0  0  0  0  0  0  0  0  0  0  0  0
   11.0310   45.6370   51.3170 Cl  0  0  0  0  0  0  0  0  0  0  0  0
    9.5460   47.1620   53.0370 C   0  0  0  0  0  0  0  0  0  0  0  0
    8.3510   47.7000   53.5240 C   0  0  0  0  0  0  0  0  0  0  0  0
    4.5080   46.5820   54.8650 C   0  0  0  0  0  0  0  0  0  0  0  0
    3.2930   45.9200   55.0680 C   0  0  0  0  0  0  0  0  0  0  0  0
   -0.9390   43.1490   52.3960 C   0  0  1  0  0  0  0  0  0  0  0  0
   -0.3280   43.4990   51.0490 C   0  0  0  0  0  0  0  0  0  0  0  0
    1.1400   43.1070   51.1510 C   0  0  0  0  0  0  0  0  0  0  0  0
    1.3290   42.2840   52.3490 N   0  0  0  0  0  0  0  0  0  0  0  0
    0.0250   42.1240   52.9910 C   0  0  0  0  0  0  0  0  0  0  0  0
   -2.9671   45.4925   53.8751 H   0  0  0  0  0  0  0  0  0  0  0  0
   -2.1878   46.0660   52.3617 H   0  0  0  0  0  0  0  0  0  0  0  0
   -3.1346   44.5396   52.3617 H   0  0  0  0  0  0  0  0  0  0  0  0
   -1.3428   43.9975   54.3232 H   0  0  0  0  0  0  0  0  0  0  0  0
    0.0420   46.0000   52.5170 H   0  0  0  0  0  0  0  0  0  0  0  0
    1.7631   46.6777   52.1032 H   0  0  0  0  0  0  0  0  0  0  0  0
    3.9291   47.8551   51.7477 H   0  0  0  0  0  0  0  0  0  0  0  0
    6.1728   46.3008   51.2871 H   0  0  0  0  0  0  0  0  0  0  0  0
    8.3084   45.3392   50.4239 H   0  0  0  0  0  0  0  0  0  0  0  0
   10.4992   47.4088   53.5275 H   0  0  0  0  0  0  0  0  0  0  0  0
    8.3697   48.3794   54.3889 H   0  0  0  0  0  0  0  0  0  0  0  0
    5.2755   46.5704   55.6530 H   0  0  0  0  0  0  0  0  0  0  0  0
    3.1123   45.3872   56.0132 H   0  0  0  0  0  0  0  0  0  0  0  0
   -1.9537   42.7366   52.2941 H   0  0  0  0  0  0  0  0  0  0  0  0
   -0.8215   42.9334   50.2449 H   0  0  0  0  0  0  0  0  0  0  0  0
   -0.4488   44.5664   50.8123 H   0  0  0  0  0  0  0  0  0  0  0  0
    1.4319   42.5333   50.2590 H   0  0  0  0  0  0  0  0  0  0  0  0
    1.7636   44.0108   51.2173 H   0  0  0  0  0  0  0  0  0  0  0  0
    1.9650   42.7930   53.0070 H   0  0  0  0  0  0  0  0  0  0  0  0
   -0.3555   41.1080   52.8094 H   0  0  0  0  0  0  0  0  0  0  0  0
    0.1180   42.2804   54.0758 H   0  0  0  0  0  0  0  0  0  0  0  0
  1  2  1  0
  2  3  1  0
  3  4  1  0
  4  5  2  0
  4  6  1  0
  6  7  2  0
  7  8  1  0
  8  9  2  0
  9 10  1  0
 10 11  1  0
 11 12  2  0
 12 13  1  0
 13 14  2  0
 14 15  1  0
 14 16  1  0
 16 17  2  0
  9 18  1  0
 18 19  2  0
  2 20  1  0
 20 21  1  0
 21 22  1  0
 22 23  1  0
 23 24  1  0
 19  6  1  0
 24 20  1  0
 17 11  1  0
  1 25  1  0
  1 26  1  0
  1 27  1  0
  2 28  1  1
  3 29  1  0
  7 30  1  0
  8 31  1  0
 12 32  1  0
 13 33  1  0
 16 34  1  0
 17 35  1  0
 18 36  1  0
 19 37  1  0
 20 38  1  6
 21 39  1  0
 21 40  1  0
 22 41  1  0
 22 42  1  0
 23 43  1  0
 24 44  1  0
 24 45  1  0
M  END
>  <meeko>  (2) 
{"is_sidechain": [false], "free_energy": -8.132, "intermolecular_energy": -10.55, "internal_energy": -0.913}

$$$$
ligand_23_conformer_4_docked
     RDKit          3D

 45 47  0  0  0  0  0  0  0  0999 V2000
    8.7710   48.0770   51.2500 C   0  0  0  0  0  0  0  0  0  0  0  0
    8.4200   46.6350   51.6580 C   0  0  2  0  0  0  0  0  0  0  0  0
    6.9710   46.4260   51.5570 N   0  0  0  0  0  0  0  0  0  0  0  0
    6.4040   45.2970   50.8700 C   0  0  0  0  0  0  0  0  0  0  0  0
    7.1320   44.5980   50.1130 O   0  0  0  0  0  0  0  0  0  0  0  0
    4.9710   44.9500   51.0260 C   0  0  0  0  0  0  0  0  0  0  0  0
    4.5930   43.6230   51.2980 C   0  0  0  0  0  0  0  0  0  0  0  0
    3.2450   43.2880   51.4530 C   0  0  0  0  0  0  0  0  0  0  0  0
    2.2520   44.2650   51.3370 C   0  0  0  0  0  0  0  0  0  0  0  0
    0.9130   43.8900   51.5140 O   0  0  0  0  0  0  0  0  0  0  0  0
    0.1840   44.0170   52.7060 C   0  0  0  0  0  0  0  0  0  0  0  0
   -1.1830   43.6900   52.7820 C   0  0  0  0  0  0  0  0  0  0  0  0
   -1.8710   43.8140   53.9940 C   0  0  0  0  0  0  0  0  0  0  0  0
   -1.1990   44.2550   55.1390 C   0  0  0  0  0  0  0  0  0  0  0  0
   -2.0630   44.4130   56.6560 Cl  0  0  0  0  0  0  0  0  0  0  0  0
    0.1630   44.5620   55.0730 C   0  0  0  0  0  0  0  0  0  0  0  0
    0.8530   44.4360   53.8630 C   0  0  0  0  0  0  0  0  0  0  0  0
    2.6270   45.5990   51.1000 C   0  0  0  0  0  0  0  0  0  0  0  0
    3.9740   45.9370   50.9420 C   0  0  0  0  0  0  0  0  0  0  0  0
    8.9160   46.2440   53.0830 C   0  0  1  0  0  0  0  0  0  0  0  0
    9.9920   47.1700   53.6260 C   0  0  0  0  0  0  0  0  0  0  0  0
    9.2910   48.0570   54.6460 C   0  0  0  0  0  0  0  0  0  0  0  0
    7.9690   47.4940   54.9350 N   0  0  0  0  0  0  0  0  0  0  0  0
    7.8240   46.2690   54.1500 C   0  0  0  0  0  0  0  0  0  0  0  0
    8.9196   48.6876   52.1528 H   0  0  0  0  0  0  0  0  0  0  0  0
    9.6948   48.0745   50.6528 H   0  0  0  0  0  0  0  0  0  0  0  0
    7.9494   48.4994   50.6528 H   0  0  0  0  0  0  0  0  0  0  0  0
    8.9536   45.9774   50.9560 H   0  0  0  0  0  0  0  0  0  0  0  0
    6.3270   47.1470   51.9540 H   0  0  0  0  0  0  0  0  0  0  0  0
    5.3636   42.8434   51.3894 H   0  0  0  0  0  0  0  0  0  0  0  0
    2.9631   42.2467   51.6681 H   0  0  0  0  0  0  0  0  0  0  0  0
   -1.7123   43.3357   51.8852 H   0  0  0  0  0  0  0  0  0  0  0  0
   -2.9411   43.5645   54.0466 H   0  0  0  0  0  0  0  0  0  0  0  0
    0.6932   44.9033   55.9744 H   0  0  0  0  0  0  0  0  0  0  0  0
    1.9275   44.6674   53.8197 H   0  0  0  0  0  0  0  0  0  0  0  0
    1.8560   46.3812   51.0386 H   0  0  0  0  0  0  0  0  0  0  0  0
    4.2558   46.9829   50.7506 H   0  0  0  0  0  0  0  0  0  0  0  0
    9.2945   45.2244   52.9180 H   0  0  0  0  0  0  0  0  0  0  0  0
   10.7918   46.5886   54.1079 H   0  0  0  0  0  0  0  0  0  0  0  0
   10.4619   47.7615   52.8264 H   0  0  0  0  0  0  0  0  0  0  0  0
    9.8854   48.0975   55.5707 H   0  0  0  0  0  0  0  0  0  0  0  0
    9.1829   49.0749   54.2432 H   0  0  0  0  0  0  0  0  0  0  0  0
    7.2390   48.1770   54.6250 H   0  0  0  0  0  0  0  0  0  0  0  0
    7.9275   45.3930   54.8072 H   0  0  0  0  0  0  0  0  0  0  0  0
    6.8324   46.2417   53.6746 H   0  0  0  0  0  0  0  0  0  0  0  0
  1  2  1  0
  2  3  1  0
  3  4  1  0
  4  5  2  0
  4  6  1  0
  6  7  2  0
  7  8  1  0
  8  9  2  0
  9 10  1  0
 10 11  1  0
 11 12  2  0
 12 13  1  0
 13 14  2  0
 14 15  1  0
 14 16  1  0
 16 17  2  0
  9 18  1  0
 18 19  2  0
  2 20  1  0
 20 21  1  0
 21 22  1  0
 22 23  1  0
 23 24  1  0
 19  6  1  0
 24 20  1  0
 17 11  1  0
  1 25  1  0
  1 26  1  0
  1 27  1  0
  2 28  1  6
  3 29  1  0
  7 30  1  0
  8 31  1  0
 12 32  1  0
 13 33  1  0
 16 34  1  0
 17 35  1  0
 18 36  1  0
 19 37  1  0
 20 38  1  6
 21 39  1  0
 21 40  1  0
 22 41  1  0
 22 42  1  0
 23 43  1  0
 24 44  1  0
 24 45  1  0
M  END
>  <meeko>  (3) 
{"is_sidechain": [false], "free_energy": -8.03, "intermolecular_energy": -10.661, "internal_energy": -0.671}

$$$$
ligand_23_conformer_4_docked
     RDKit          3D

 45 47  0  0  0  0  0  0  0  0999 V2000
    6.7830   46.5460   54.4970 C   0  0  0  0  0  0  0  0  0  0  0  0
    6.4520   46.6070   52.9950 C   0  0  2  0  0  0  0  0  0  0  0  0
    6.1420   45.2620   52.4980 N   0  0  0  0  0  0  0  0  0  0  0  0
    4.7920   44.8150   52.2820 C   0  0  0  0  0  0  0  0  0  0  0  0
    3.8320   45.4770   52.7630 O   0  0  0  0  0  0  0  0  0  0  0  0
    4.5120   43.5780   51.5150 C   0  0  0  0  0  0  0  0  0  0  0  0
    3.1960   43.0920   51.4180 C   0  0  0  0  0  0  0  0  0  0  0  0
    2.9210   41.9300   50.6910 C   0  0  0  0  0  0  0  0  0  0  0  0
    3.9500   41.2310   50.0530 C   0  0  0  0  0  0  0  0  0  0  0  0
    3.6300   40.0780   49.3230 O   0  0  0  0  0  0  0  0  0  0  0  0
    3.5630   39.9940   47.9240 C   0  0  0  0  0  0  0  0  0  0  0  0
    4.1110   40.9880   47.0910 C   0  0  0  0  0  0  0  0  0  0  0  0
    4.0390   40.8600   45.7000 C   0  0  0  0  0  0  0  0  0  0  0  0
    3.4310   39.7360   45.1310 C   0  0  0  0  0  0  0  0  0  0  0  0
    3.3380   39.5780   43.3870 Cl  0  0  0  0  0  0  0  0  0  0  0  0
    2.9030   38.7370   45.9540 C   0  0  0  0  0  0  0  0  0  0  0  0
    2.9760   38.8620   47.3450 C   0  0  0  0  0  0  0  0  0  0  0  0
    5.2620   41.7310   50.1190 C   0  0  0  0  0  0  0  0  0  0  0  0
    5.5400   42.8920   50.8450 C   0  0  0  0  0  0  0  0  0  0  0  0
    7.5760   47.2500   52.1270 C   0  0  1  0  0  0  0  0  0  0  0  0
    8.8110   47.6360   52.9230 C   0  0  0  0  0  0  0  0  0  0  0  0
    9.8520   46.5700   52.6080 C   0  0  0  0  0  0  0  0  0  0  0  0
    9.3920   45.7840   51.4580 N   0  0  0  0  0  0  0  0  0  0  0  0
    8.1090   46.3360   51.0250 C   0  0  0  0  0  0  0  0  0  0  0  0
    5.8666   46.7149   55.0816 H   0  0  0  0  0  0  0  0  0  0  0  0
    7.1967   45.5565   54.7414 H   0  0  0  0  0  0  0  0  0  0  0  0
    7.5222   47.3230   54.7414 H   0  0  0  0  0  0  0  0  0  0  0  0
    5.5757   47.2648   52.8980 H   0  0  0  0  0  0  0  0  0  0  0  0
    6.9250   44.5870   52.3410 H   0  0  0  0  0  0  0  0  0  0  0  0
    2.3770   43.6300   51.9178 H   0  0  0  0  0  0  0  0  0  0  0  0
    1.8865   41.5627   50.6204 H   0  0  0  0  0  0  0  0  0  0  0  0
    4.5976   41.8686   47.5358 H   0  0  0  0  0  0  0  0  0  0  0  0
    4.4607   41.6435   45.0532 H   0  0  0  0  0  0  0  0  0  0  0  0
    2.4292   37.8508   45.5066 H   0  0  0  0  0  0  0  0  0  0  0  0
    2.5702   38.0669   47.9878 H   0  0  0  0  0  0  0  0  0  0  0  0
    6.0745   41.2053   49.5961 H   0  0  0  0  0  0  0  0  0  0  0  0
    6.5711   43.2721   50.8927 H   0  0  0  0  0  0  0  0  0  0  0  0
    7.0637   48.1293   51.7093 H   0  0  0  0  0  0  0  0  0  0  0  0
    9.1720   48.6281   52.6143 H   0  0  0  0  0  0  0  0  0  0  0  0
    8.5991   47.6915   54.0010 H   0  0  0  0  0  0  0  0  0  0  0  0
   10.8117   47.0505   52.3671 H   0  0  0  0  0  0  0  0  0  0  0  0
    9.9884   45.9124   53.4792 H   0  0  0  0  0  0  0  0  0  0  0  0
    9.2430   44.7950   51.7680 H   0  0  0  0  0  0  0  0  0  0  0  0
    8.2474   46.9134   50.0990 H   0  0  0  0  0  0  0  0  0  0  0  0
    7.3946   45.5218   50.8332 H   0  0  0  0  0  0  0  0  0  0  0  0
  1  2  1  0
  2  3  1  0
  3  4  1  0
  4  5  2  0
  4  6  1  0
  6  7  2  0
  7  8  1  0
  8  9  2  0
  9 10  1  0
 10 11  1  0
 11 12  2  0
 12 13  1  0
 13 14  2  0
 14 15  1  0
 14 16  1  0
 16 17  2  0
  9 18  1  0
 18 19  2  0
  2 20  1  0
 20 21  1  0
 21 22  1  0
 22 23  1  0
 23 24  1  0
 19  6  1  0
 24 20  1  0
 17 11  1  0
  1 25  1  0
  1 26  1  0
  1 27  1  0
  2 28  1  1
  3 29  1  0
  7 30  1  0
  8 31  1  0
 12 32  1  0
 13 33  1  0
 16 34  1  0
 17 35  1  0
 18 36  1  0
 19 37  1  0
 20 38  1  6
 21 39  1  0
 21 40  1  0
 22 41  1  0
 22 42  1  0
 23 43  1  0
 24 44  1  0
 24 45  1  0
M  END
>  <meeko>  (4) 
{"is_sidechain": [false], "free_energy": -7.787, "intermolecular_energy": -10.228, "internal_energy": -0.79}

$$$$
ligand_23_conformer_4_docked
     RDKit          3D

 45 47  0  0  0  0  0  0  0  0999 V2000
   -1.2180   43.6720   54.6820 C   0  0  0  0  0  0  0  0  0  0  0  0
   -0.6570   43.3780   53.2790 C   0  0  2  0  0  0  0  0  0  0  0  0
    0.7280   43.8520   53.1850 N   0  0  0  0  0  0  0  0  0  0  0  0
    1.6070   43.4490   52.1210 C   0  0  0  0  0  0  0  0  0  0  0  0
    1.2910   42.4730   51.3870 O   0  0  0  0  0  0  0  0  0  0  0  0
    2.8890   44.1550   51.8820 C   0  0  0  0  0  0  0  0  0  0  0  0
    4.1030   43.4460   51.9320 C   0  0  0  0  0  0  0  0  0  0  0  0
    5.3160   44.1020   51.7020 C   0  0  0  0  0  0  0  0  0  0  0  0
    5.3410   45.4720   51.4230 C   0  0  0  0  0  0  0  0  0  0  0  0
    6.5780   46.0880   51.1840 O   0  0  0  0  0  0  0  0  0  0  0  0
    7.5110   46.4470   52.1680 C   0  0  0  0  0  0  0  0  0  0  0  0
    7.1230   46.7550   53.4860 C   0  0  0  0  0  0  0  0  0  0  0  0
    8.0850   47.0920   54.4430 C   0  0  0  0  0  0  0  0  0  0  0  0
    9.4400   47.1130   54.0970 C   0  0  0  0  0  0  0  0  0  0  0  0
   10.6460   47.5390   55.2970 Cl  0  0  0  0  0  0  0  0  0  0  0  0
    9.8320   46.7890   52.7940 C   0  0  0  0  0  0  0  0  0  0  0  0
    8.8710   46.4490   51.8370 C   0  0  0  0  0  0  0  0  0  0  0  0
    4.1290   46.1770   51.3380 C   0  0  0  0  0  0  0  0  0  0  0  0
    2.9140   45.5250   51.5690 C   0  0  0  0  0  0  0  0  0  0  0  0
   -1.5070   43.9830   52.1210 C   0  0  1  0  0  0  0  0  0  0  0  0
   -3.0000   43.9860   52.4010 C   0  0  0  0  0  0  0  0  0  0  0  0
   -3.3470   45.4270   52.7540 C   0  0  0  0  0  0  0  0  0  0  0  0
   -2.2160   46.2880   52.3950 N   0  0  0  0  0  0  0  0  0  0  0  0
   -1.1800   45.4420   51.8060 C   0  0  0  0  0  0  0  0  0  0  0  0
   -0.5144   43.3033   55.4429 H   0  0  0  0  0  0  0  0  0  0  0  0
   -1.3533   44.7569   54.8028 H   0  0  0  0  0  0  0  0  0  0  0  0
   -2.1872   43.1659   54.8028 H   0  0  0  0  0  0  0  0  0  0  0  0
   -0.6986   42.2861   53.1526 H   0  0  0  0  0  0  0  0  0  0  0  0
    1.1060   44.4640   53.9440 H   0  0  0  0  0  0  0  0  0  0  0  0
    4.0979   42.3685   52.1535 H   0  0  0  0  0  0  0  0  0  0  0  0
    6.2583   43.5359   51.7408 H   0  0  0  0  0  0  0  0  0  0  0  0
    6.0589   46.7304   53.7638 H   0  0  0  0  0  0  0  0  0  0  0  0
    7.7759   47.3408   55.4689 H   0  0  0  0  0  0  0  0  0  0  0  0
   10.8977   46.8017   52.5218 H   0  0  0  0  0  0  0  0  0  0  0  0
    9.1857   46.1814   50.8175 H   0  0  0  0  0  0  0  0  0  0  0  0
    4.1359   47.2482   51.0882 H   0  0  0  0  0  0  0  0  0  0  0  0
    1.9712   46.0881   51.5053 H   0  0  0  0  0  0  0  0  0  0  0  0
   -1.2469   43.3212   51.2818 H   0  0  0  0  0  0  0  0  0  0  0  0
   -3.5586   43.6637   51.5099 H   0  0  0  0  0  0  0  0  0  0  0  0
   -3.2634   43.2928   53.2135 H   0  0  0  0  0  0  0  0  0  0  0  0
   -4.2413   45.7393   52.1948 H   0  0  0  0  0  0  0  0  0  0  0  0
   -3.5508   45.5086   53.8319 H   0  0  0  0  0  0  0  0  0  0  0  0
   -1.8360   46.7220   53.2690 H   0  0  0  0  0  0  0  0  0  0  0  0
   -1.1558   45.5897   50.7162 H   0  0  0  0  0  0  0  0  0  0  0  0
   -0.1967   45.7058   52.2225 H   0  0  0  0  0  0  0  0  0  0  0  0
  1  2  1  0
  2  3  1  0
  3  4  1  0
  4  5  2  0
  4  6  1  0
  6  7  2  0
  7  8  1  0
  8  9  2  0
  9 10  1  0
 10 11  1  0
 11 12  2  0
 12 13  1  0
 13 14  2  0
 14 15  1  0
 14 16  1  0
 16 17  2  0
  9 18  1  0
 18 19  2  0
  2 20  1  0
 20 21  1  0
 21 22  1  0
 22 23  1  0
 23 24  1  0
 19  6  1  0
 24 20  1  0
 17 11  1  0
  1 25  1  0
  1 26  1  0
  1 27  1  0
  2 28  1  6
  3 29  1  0
  7 30  1  0
  8 31  1  0
 12 32  1  0
 13 33  1  0
 16 34  1  0
 17 35  1  0
 18 36  1  0
 19 37  1  0
 20 38  1  6
 21 39  1  0
 21 40  1  0
 22 41  1  0
 22 42  1  0
 23 43  1  0
 24 44  1  0
 24 45  1  0
M  END
>  <meeko>  (5) 
{"is_sidechain": [false], "free_energy": -7.751, "intermolecular_energy": -10.451, "internal_energy": -0.521}

$$$$
