ligand_47_conformer_3_docked
     RDKit          3D

 43 46  0  0  0  0  0  0  0  0999 V2000
    8.1180   43.7320   48.5940 C   0  0  0  0  0  0  0  0  0  0  0  0
    7.0960   43.6660   49.6370 N   0  0  0  0  0  0  0  0  0  0  0  0
    6.1230   42.7340   49.7900 C   0  0  0  0  0  0  0  0  0  0  0  0
    6.0050   41.7210   49.0490 O   0  0  0  0  0  0  0  0  0  0  0  0
    5.2830   43.0100   50.8190 N   0  0  0  0  0  0  0  0  0  0  0  0
    4.0940   42.2640   51.2290 C   0  0  0  0  0  0  0  0  0  0  0  0
    5.7350   44.1840   51.3050 C   0  0  0  0  0  0  0  0  0  0  0  0
    5.2160   44.9520   52.3430 C   0  0  0  0  0  0  0  0  0  0  0  0
    5.8530   46.1740   52.6550 C   0  0  0  0  0  0  0  0  0  0  0  0
    5.1610   47.1670   53.9480 S   0  0  0  0  0  0  0  0  0  0  0  0
    6.2350   47.4640   54.9570 O   0  0  0  0  0  0  0  0  0  0  0  0
    4.6080   48.4620   53.4190 O   0  0  0  0  0  0  0  0  0  0  0  0
    3.8710   46.3040   54.7290 N   0  0  0  0  0  0  0  0  0  0  0  0
    2.8260   45.6220   54.0130 C   0  0  0  0  0  0  0  0  0  0  0  0
    2.0710   46.3340   53.0500 C   0  0  0  0  0  0  0  0  0  0  0  0
    1.0460   45.6970   52.3290 C   0  0  0  0  0  0  0  0  0  0  0  0
    0.7880   44.3510   52.5890 C   0  0  0  0  0  0  0  0  0  0  0  0
    1.5030   43.6630   53.5240 C   0  0  0  0  0  0  0  0  0  0  0  0
    2.5310   44.2600   54.2500 C   0  0  0  0  0  0  0  0  0  0  0  0
    1.0800   42.3200   53.6220 N   0  0  0  0  0  0  0  0  0  0  0  0
    0.0000   42.1020   52.6620 C   0  0  0  0  0  0  0  0  0  0  0  0
   -0.2160   43.4600   51.9440 C   0  0  0  0  0  0  0  0  0  0  0  0
    7.0200   46.5670   51.9300 C   0  0  0  0  0  0  0  0  0  0  0  0
    8.0030   48.1660   52.3360 Br  0  0  0  0  0  0  0  0  0  0  0  0
    7.5060   45.7660   50.8800 C   0  0  0  0  0  0  0  0  0  0  0  0
    6.8330   44.5790   50.5930 C   0  0  0  0  0  0  0  0  0  0  0  0
    9.1128   43.7962   49.0590 H   0  0  0  0  0  0  0  0  0  0  0  0
    8.0630   42.8284   47.9691 H   0  0  0  0  0  0  0  0  0  0  0  0
    7.9473   44.6210   47.9691 H   0  0  0  0  0  0  0  0  0  0  0  0
    4.0422   42.2315   52.3273 H   0  0  0  0  0  0  0  0  0  0  0  0
    3.1954   42.7605   50.8341 H   0  0  0  0  0  0  0  0  0  0  0  0
    4.1500   41.2389   50.8341 H   0  0  0  0  0  0  0  0  0  0  0  0
    4.3326   44.6164   52.9060 H   0  0  0  0  0  0  0  0  0  0  0  0
    3.9330   46.1950   55.7670 H   0  0  0  0  0  0  0  0  0  0  0  0
    2.2886   47.3961   52.8641 H   0  0  0  0  0  0  0  0  0  0  0  0
    0.4610   46.2472   51.5773 H   0  0  0  0  0  0  0  0  0  0  0  0
    3.1017   43.6833   54.9927 H   0  0  0  0  0  0  0  0  0  0  0  0
    1.5190   41.5840   54.2190 H   0  0  0  0  0  0  0  0  0  0  0  0
    0.2853   41.3269   51.9355 H   0  0  0  0  0  0  0  0  0  0  0  0
   -0.9188   41.7598   53.1607 H   0  0  0  0  0  0  0  0  0  0  0  0
   -0.0267   43.3695   50.8642 H   0  0  0  0  0  0  0  0  0  0  0  0
   -1.2460   43.8357   52.0336 H   0  0  0  0  0  0  0  0  0  0  0  0
    8.3919   46.0678   50.3019 H   0  0  0  0  0  0  0  0  0  0  0  0
  1  2  1  0
  2  3  1  0
  3  4  2  0
  3  5  1  0
  5  6  1  0
  5  7  1  0
  7  8  2  0
  8  9  1  0
  9 10  1  0
 10 11  2  0
 10 12  2  0
 10 13  1  0
 13 14  1  0
 14 15  2  0
 15 16  1  0
 16 17  2  0
 17 18  1  0
 18 19  2  0
 18 20  1  0
 20 21  1  0
 21 22  1  0
  9 23  2  0
 23 24  1  0
 23 25  1  0
 25 26  2  0
 26  2  1  0
 26  7  1  0
 19 14  1  0
 22 17  1  0
  1 27  1  0
  1 28  1  0
  1 29  1  0
  6 30  1  0
  6 31  1  0
  6 32  1  0
  8 33  1  0
 13 34  1  0
 15 35  1  0
 16 36  1  0
 19 37  1  0
 20 38  1  0
 21 39  1  0
 21 40  1  0
 22 41  1  0
 22 42  1  0
 25 43  1  0
M  END
>  <meeko>  (1) 
{"is_sidechain": [false], "free_energy": -9.311, "intermolecular_energy": -10.944, "internal_energy": -0.047}

$$$$
ligand_47_conformer_3_docked
     RDKit          3D

 43 46  0  0  0  0  0  0  0  0999 V2000
   -2.0520   43.6870   56.0190 C   0  0  0  0  0  0  0  0  0  0  0  0
   -1.6880   44.0740   54.6580 N   0  0  0  0  0  0  0  0  0  0  0  0
   -2.4100   43.9010   53.5240 C   0  0  0  0  0  0  0  0  0  0  0  0
   -3.5730   43.4140   53.5050 O   0  0  0  0  0  0  0  0  0  0  0  0
   -1.7490   44.3010   52.4090 N   0  0  0  0  0  0  0  0  0  0  0  0
   -2.1940   44.2030   51.0200 C   0  0  0  0  0  0  0  0  0  0  0  0
   -0.5480   44.7080   52.8690 C   0  0  0  0  0  0  0  0  0  0  0  0
    0.5450   45.1780   52.1470 C   0  0  0  0  0  0  0  0  0  0  0  0
    1.7190   45.5200   52.8560 C   0  0  0  0  0  0  0  0  0  0  0  0
    3.1200   46.0760   51.9280 S   0  0  0  0  0  0  0  0  0  0  0  0
    2.7730   46.0500   50.4650 O   0  0  0  0  0  0  0  0  0  0  0  0
    3.5250   47.4730   52.3140 O   0  0  0  0  0  0  0  0  0  0  0  0
    4.4710   45.0200   52.2090 N   0  0  0  0  0  0  0  0  0  0  0  0
    5.8410   45.4570   52.1670 C   0  0  0  0  0  0  0  0  0  0  0  0
    6.5520   45.3880   50.9450 C   0  0  0  0  0  0  0  0  0  0  0  0
    7.8890   45.8120   50.8690 C   0  0  0  0  0  0  0  0  0  0  0  0
    8.5000   46.2960   52.0250 C   0  0  0  0  0  0  0  0  0  0  0  0
    7.8260   46.3530   53.2090 C   0  0  0  0  0  0  0  0  0  0  0  0
    6.4970   45.9510   53.3190 C   0  0  0  0  0  0  0  0  0  0  0  0
    8.6310   46.8770   54.2440 N   0  0  0  0  0  0  0  0  0  0  0  0
    9.9440   47.2010   53.6930 C   0  0  0  0  0  0  0  0  0  0  0  0
    9.8840   46.8230   52.1900 C   0  0  0  0  0  0  0  0  0  0  0  0
    1.7400   45.4100   54.2810 C   0  0  0  0  0  0  0  0  0  0  0  0
    3.2560   45.9310   55.3380 Br  0  0  0  0  0  0  0  0  0  0  0  0
    0.6160   44.9190   54.9720 C   0  0  0  0  0  0  0  0  0  0  0  0
   -0.5120   44.5740   54.2290 C   0  0  0  0  0  0  0  0  0  0  0  0
   -1.4815   44.2936   56.7377 H   0  0  0  0  0  0  0  0  0  0  0  0
   -3.1285   43.8534   56.1720 H   0  0  0  0  0  0  0  0  0  0  0  0
   -1.8201   42.6227   56.1720 H   0  0  0  0  0  0  0  0  0  0  0  0
   -3.2680   43.9665   50.9949 H   0  0  0  0  0  0  0  0  0  0  0  0
   -2.0176   45.1615   50.5100 H   0  0  0  0  0  0  0  0  0  0  0  0
   -1.6313   43.4073   50.5100 H   0  0  0  0  0  0  0  0  0  0  0  0
    0.4965   45.2807   51.0529 H   0  0  0  0  0  0  0  0  0  0  0  0
    4.2560   44.0470   52.5270 H   0  0  0  0  0  0  0  0  0  0  0  0
    6.0525   44.9984   50.0457 H   0  0  0  0  0  0  0  0  0  0  0  0
    8.4414   45.7633   49.9190 H   0  0  0  0  0  0  0  0  0  0  0  0
    5.9685   46.0163   54.2815 H   0  0  0  0  0  0  0  0  0  0  0  0
    8.3150   47.0760   55.2190 H   0  0  0  0  0  0  0  0  0  0  0  0
   10.1523   48.2749   53.8087 H   0  0  0  0  0  0  0  0  0  0  0  0
   10.7445   46.6548   54.2134 H   0  0  0  0  0  0  0  0  0  0  0  0
   10.0480   47.7058   51.5546 H   0  0  0  0  0  0  0  0  0  0  0  0
   10.6585   46.0991   51.8966 H   0  0  0  0  0  0  0  0  0  0  0  0
    0.6275   44.8107   56.0666 H   0  0  0  0  0  0  0  0  0  0  0  0
  1  2  1  0
  2  3  1  0
  3  4  2  0
  3  5  1  0
  5  6  1  0
  5  7  1  0
  7  8  2  0
  8  9  1  0
  9 10  1  0
 10 11  2  0
 10 12  2  0
 10 13  1  0
 13 14  1  0
 14 15  2  0
 15 16  1  0
 16 17  2  0
 17 18  1  0
 18 19  2  0
 18 20  1  0
 20 21  1  0
 21 22  1  0
  9 23  2  0
 23 24  1  0
 23 25  1  0
 25 26  2  0
 26  2  1  0
 26  7  1  0
 19 14  1  0
 22 17  1  0
  1 27  1  0
  1 28  1  0
  1 29  1  0
  6 30  1  0
  6 31  1  0
  6 32  1  0
  8 33  1  0
 13 34  1  0
 15 35  1  0
 16 36  1  0
 19 37  1  0
 20 38  1  0
 21 39  1  0
 21 40  1  0
 22 41  1  0
 22 42  1  0
 25 43  1  0
M  END
>  <meeko>  (2) 
{"is_sidechain": [false], "free_energy": -9.297, "intermolecular_energy": -10.579, "internal_energy": -0.395}

$$$$
ligand_47_conformer_3_docked
     RDKit          3D

 43 46  0  0  0  0  0  0  0  0999 V2000
    0.7840   42.8400   53.4900 C   0  0  0  0  0  0  0  0  0  0  0  0
    2.0970   43.4630   53.3340 N   0  0  0  0  0  0  0  0  0  0  0  0
    2.5990   44.5240   54.0130 C   0  0  0  0  0  0  0  0  0  0  0  0
    1.9910   45.1010   54.9550 O   0  0  0  0  0  0  0  0  0  0  0  0
    3.8220   44.9070   53.5670 N   0  0  0  0  0  0  0  0  0  0  0  0
    4.6250   46.0410   54.0200 C   0  0  0  0  0  0  0  0  0  0  0  0
    4.0750   44.0670   52.5430 C   0  0  0  0  0  0  0  0  0  0  0  0
    5.1780   44.0380   51.6950 C   0  0  0  0  0  0  0  0  0  0  0  0
    5.2050   43.0720   50.6640 C   0  0  0  0  0  0  0  0  0  0  0  0
    6.5900   43.0690   49.5610 S   0  0  0  0  0  0  0  0  0  0  0  0
    7.6300   42.1230   50.0940 O   0  0  0  0  0  0  0  0  0  0  0  0
    6.1970   42.6420   48.1740 O   0  0  0  0  0  0  0  0  0  0  0  0
    7.2720   44.6650   49.4660 N   0  0  0  0  0  0  0  0  0  0  0  0
    8.0510   45.2580   50.5210 C   0  0  0  0  0  0  0  0  0  0  0  0
    9.4430   45.0070   50.5760 C   0  0  0  0  0  0  0  0  0  0  0  0
   10.2340   45.5750   51.5890 C   0  0  0  0  0  0  0  0  0  0  0  0
    9.6150   46.3840   52.5410 C   0  0  0  0  0  0  0  0  0  0  0  0
    8.2710   46.6200   52.5020 C   0  0  0  0  0  0  0  0  0  0  0  0
    7.4600   46.0810   51.5070 C   0  0  0  0  0  0  0  0  0  0  0  0
    7.8580   47.4650   53.5540 N   0  0  0  0  0  0  0  0  0  0  0  0
    9.0300   47.8260   54.3480 C   0  0  0  0  0  0  0  0  0  0  0  0
   10.2360   47.1120   53.6830 C   0  0  0  0  0  0  0  0  0  0  0  0
    4.1300   42.1380   50.5430 C   0  0  0  0  0  0  0  0  0  0  0  0
    4.1160   40.7370   49.2300 Br  0  0  0  0  0  0  0  0  0  0  0  0
    3.0270   42.2090   51.4150 C   0  0  0  0  0  0  0  0  0  0  0  0
    3.0340   43.1920   52.4040 C   0  0  0  0  0  0  0  0  0  0  0  0
    0.5546   42.7312   54.5603 H   0  0  0  0  0  0  0  0  0  0  0  0
    0.0196   43.4714   53.0136 H   0  0  0  0  0  0  0  0  0  0  0  0
    0.7896   41.8486   53.0136 H   0  0  0  0  0  0  0  0  0  0  0  0
    4.6407   46.0632   55.1197 H   0  0  0  0  0  0  0  0  0  0  0  0
    5.6523   45.9376   53.6406 H   0  0  0  0  0  0  0  0  0  0  0  0
    4.1864   46.9757   53.6406 H   0  0  0  0  0  0  0  0  0  0  0  0
    6.0076   44.7488   51.8239 H   0  0  0  0  0  0  0  0  0  0  0  0
    7.1920   45.1630   48.5500 H   0  0  0  0  0  0  0  0  0  0  0  0
    9.9102   44.3609   49.8182 H   0  0  0  0  0  0  0  0  0  0  0  0
   11.3168   45.3857   51.6300 H   0  0  0  0  0  0  0  0  0  0  0  0
    6.3805   46.2914   51.4884 H   0  0  0  0  0  0  0  0  0  0  0  0
    6.8920   47.8370   53.6930 H   0  0  0  0  0  0  0  0  0  0  0  0
    9.1779   48.9160   54.3367 H   0  0  0  0  0  0  0  0  0  0  0  0
    8.9127   47.5228   55.3988 H   0  0  0  0  0  0  0  0  0  0  0  0
   10.9792   47.8413   53.3283 H   0  0  0  0  0  0  0  0  0  0  0  0
   10.7780   46.4487   54.3731 H   0  0  0  0  0  0  0  0  0  0  0  0
    2.1838   41.5091   51.3189 H   0  0  0  0  0  0  0  0  0  0  0  0
  1  2  1  0
  2  3  1  0
  3  4  2  0
  3  5  1  0
  5  6  1  0
  5  7  1  0
  7  8  2  0
  8  9  1  0
  9 10  1  0
 10 11  2  0
 10 12  2  0
 10 13  1  0
 13 14  1  0
 14 15  2  0
 15 16  1  0
 16 17  2  0
 17 18  1  0
 18 19  2  0
 18 20  1  0
 20 21  1  0
 21 22  1  0
  9 23  2  0
 23 24  1  0
 23 25  1  0
 25 26  2  0
 26  2  1  0
 26  7  1  0
 19 14  1  0
 22 17  1  0
  1 27  1  0
  1 28  1  0
  1 29  1  0
  6 30  1  0
  6 31  1  0
  6 32  1  0
  8 33  1  0
 13 34  1  0
 15 35  1  0
 16 36  1  0
 19 37  1  0
 20 38  1  0
 21 39  1  0
 21 40  1  0
 22 41  1  0
 22 42  1  0
 25 43  1  0
M  END
>  <meeko>  (3) 
{"is_sidechain": [false], "free_energy": -9.006, "intermolecular_energy": -10.821, "internal_energy": 0.189}

$$$$
ligand_47_conformer_3_docked
     RDKit          3D

 43 46  0  0  0  0  0  0  0  0999 V2000
    9.0900   44.5520   49.5860 C   0  0  0  0  0  0  0  0  0  0  0  0
    8.8440   45.4040   50.7470 N   0  0  0  0  0  0  0  0  0  0  0  0
    9.7580   45.9400   51.5930 C   0  0  0  0  0  0  0  0  0  0  0  0
   11.0040   45.8140   51.4440 O   0  0  0  0  0  0  0  0  0  0  0  0
    9.1930   46.6190   52.6220 N   0  0  0  0  0  0  0  0  0  0  0  0
    9.8680   47.2650   53.7470 C   0  0  0  0  0  0  0  0  0  0  0  0
    7.8670   46.4690   52.4250 C   0  0  0  0  0  0  0  0  0  0  0  0
    6.8150   46.9280   53.2110 C   0  0  0  0  0  0  0  0  0  0  0  0
    5.4950   46.6180   52.8100 C   0  0  0  0  0  0  0  0  0  0  0  0
    4.1620   47.1670   53.8380 S   0  0  0  0  0  0  0  0  0  0  0  0
    4.6230   48.3580   54.6320 O   0  0  0  0  0  0  0  0  0  0  0  0
    2.9550   47.5500   53.0260 O   0  0  0  0  0  0  0  0  0  0  0  0
    3.7010   45.8990   54.9340 N   0  0  0  0  0  0  0  0  0  0  0  0
    2.3720   45.3520   54.9980 C   0  0  0  0  0  0  0  0  0  0  0  0
    1.9470   44.4480   53.9950 C   0  0  0  0  0  0  0  0  0  0  0  0
    0.6570   43.8920   54.0320 C   0  0  0  0  0  0  0  0  0  0  0  0
   -0.1950   44.2570   55.0740 C   0  0  0  0  0  0  0  0  0  0  0  0
    0.2030   45.1370   56.0360 C   0  0  0  0  0  0  0  0  0  0  0  0
    1.4770   45.7000   56.0370 C   0  0  0  0  0  0  0  0  0  0  0  0
   -0.8120   45.3610   56.9920 N   0  0  0  0  0  0  0  0  0  0  0  0
   -1.9740   44.5500   56.6350 C   0  0  0  0  0  0  0  0  0  0  0  0
   -1.5840   43.7880   55.3420 C   0  0  0  0  0  0  0  0  0  0  0  0
    5.2780   45.8810   51.6050 C   0  0  0  0  0  0  0  0  0  0  0  0
    3.5230   45.4840   50.9340 Br  0  0  0  0  0  0  0  0  0  0  0  0
    6.3720   45.4260   50.8450 C   0  0  0  0  0  0  0  0  0  0  0  0
    7.6560   45.7380   51.2900 C   0  0  0  0  0  0  0  0  0  0  0  0
    9.3804   43.5463   49.9241 H   0  0  0  0  0  0  0  0  0  0  0  0
    8.1745   44.4849   48.9798 H   0  0  0  0  0  0  0  0  0  0  0  0
    9.9003   44.9832   48.9798 H   0  0  0  0  0  0  0  0  0  0  0  0
    9.4608   46.8753   54.6917 H   0  0  0  0  0  0  0  0  0  0  0  0
   10.9464   47.0539   53.6978 H   0  0  0  0  0  0  0  0  0  0  0  0
    9.7044   48.3517   53.6978 H   0  0  0  0  0  0  0  0  0  0  0  0
    7.0051   47.5167   54.1206 H   0  0  0  0  0  0  0  0  0  0  0  0
    4.4640   45.4510   55.4900 H   0  0  0  0  0  0  0  0  0  0  0  0
    2.6332   44.1782   53.1787 H   0  0  0  0  0  0  0  0  0  0  0  0
    0.3267   43.1850   53.2567 H   0  0  0  0  0  0  0  0  0  0  0  0
    1.7809   46.4004   56.8289 H   0  0  0  0  0  0  0  0  0  0  0  0
   -0.7190   45.9420   57.8550 H   0  0  0  0  0  0  0  0  0  0  0  0
   -2.2063   43.8394   57.4419 H   0  0  0  0  0  0  0  0  0  0  0  0
   -2.8675   45.1729   56.4810 H   0  0  0  0  0  0  0  0  0  0  0  0
   -1.6085   42.7001   55.5030 H   0  0  0  0  0  0  0  0  0  0  0  0
   -2.2721   43.9792   54.5053 H   0  0  0  0  0  0  0  0  0  0  0  0
    6.2183   44.8410   49.9262 H   0  0  0  0  0  0  0  0  0  0  0  0
  1  2  1  0
  2  3  1  0
  3  4  2  0
  3  5  1  0
  5  6  1  0
  5  7  1  0
  7  8  2  0
  8  9  1  0
  9 10  1  0
 10 11  2  0
 10 12  2  0
 10 13  1  0
 13 14  1  0
 14 15  2  0
 15 16  1  0
 16 17  2  0
 17 18  1  0
 18 19  2  0
 18 20  1  0
 20 21  1  0
 21 22  1  0
  9 23  2  0
 23 24  1  0
 23 25  1  0
 25 26  2  0
 26  2  1  0
 26  7  1  0
 19 14  1  0
 22 17  1  0
  1 27  1  0
  1 28  1  0
  1 29  1  0
  6 30  1  0
  6 31  1  0
  6 32  1  0
  8 33  1  0
 13 34  1  0
 15 35  1  0
 16 36  1  0
 19 37  1  0
 20 38  1  0
 21 39  1  0
 21 40  1  0
 22 41  1  0
 22 42  1  0
 25 43  1  0
M  END
>  <meeko>  (4) 
{"is_sidechain": [false], "free_energy": -8.933, "intermolecular_energy": -10.47, "internal_energy": -0.076}

$$$$
ligand_47_conformer_3_docked
     RDKit          3D

 43 46  0  0  0  0  0  0  0  0999 V2000
   -3.1520   43.9500   55.5970 C   0  0  0  0  0  0  0  0  0  0  0  0
   -1.7840   44.4380   55.7600 N   0  0  0  0  0  0  0  0  0  0  0  0
   -1.2540   45.0840   56.8280 C   0  0  0  0  0  0  0  0  0  0  0  0
   -1.8880   45.3040   57.8950 O   0  0  0  0  0  0  0  0  0  0  0  0
    0.0290   45.4760   56.6250 N   0  0  0  0  0  0  0  0  0  0  0  0
    0.8830   46.2460   57.5290 C   0  0  0  0  0  0  0  0  0  0  0  0
    0.2950   45.0870   55.3620 C   0  0  0  0  0  0  0  0  0  0  0  0
    1.4580   45.2770   54.6210 C   0  0  0  0  0  0  0  0  0  0  0  0
    1.4900   44.8000   53.2910 C   0  0  0  0  0  0  0  0  0  0  0  0
    2.9570   45.0830   52.3400 S   0  0  0  0  0  0  0  0  0  0  0  0
    3.6990   43.7830   52.1970 O   0  0  0  0  0  0  0  0  0  0  0  0
    2.6370   45.6220   50.9730 O   0  0  0  0  0  0  0  0  0  0  0  0
    3.9760   46.2310   53.1550 N   0  0  0  0  0  0  0  0  0  0  0  0
    5.3880   46.3510   52.9090 C   0  0  0  0  0  0  0  0  0  0  0  0
    5.8920   46.0620   51.6180 C   0  0  0  0  0  0  0  0  0  0  0  0
    7.2650   46.1750   51.3430 C   0  0  0  0  0  0  0  0  0  0  0  0
    8.1190   46.5700   52.3720 C   0  0  0  0  0  0  0  0  0  0  0  0
    7.6420   46.8380   53.6220 C   0  0  0  0  0  0  0  0  0  0  0  0
    6.2870   46.7460   53.9270 C   0  0  0  0  0  0  0  0  0  0  0  0
    8.6750   47.2220   54.5040 N   0  0  0  0  0  0  0  0  0  0  0  0
    9.9390   47.2180   53.7710 C   0  0  0  0  0  0  0  0  0  0  0  0
    9.5920   46.7850   52.3220 C   0  0  0  0  0  0  0  0  0  0  0  0
    0.3560   44.1120   52.7600 C   0  0  0  0  0  0  0  0  0  0  0  0
    0.3340   43.3540   50.9960 Br  0  0  0  0  0  0  0  0  0  0  0  0
   -0.8060   43.9510   53.5400 C   0  0  0  0  0  0  0  0  0  0  0  0
   -0.7990   44.4570   54.8390 C   0  0  0  0  0  0  0  0  0  0  0  0
   -3.6041   43.7887   56.5867 H   0  0  0  0  0  0  0  0  0  0  0  0
   -3.7425   44.6929   55.0408 H   0  0  0  0  0  0  0  0  0  0  0  0
   -3.1390   43.0011   55.0408 H   0  0  0  0  0  0  0  0  0  0  0  0
    0.6210   46.0098   58.5709 H   0  0  0  0  0  0  0  0  0  0  0  0
    1.9365   45.9866   57.3480 H   0  0  0  0  0  0  0  0  0  0  0  0
    0.7337   47.3207   57.3480 H   0  0  0  0  0  0  0  0  0  0  0  0
    2.3296   45.7852   55.0593 H   0  0  0  0  0  0  0  0  0  0  0  0
    3.5040   46.9310   53.7710 H   0  0  0  0  0  0  0  0  0  0  0  0
    5.2016   45.7458   50.8222 H   0  0  0  0  0  0  0  0  0  0  0  0
    7.6574   45.9568   50.3388 H   0  0  0  0  0  0  0  0  0  0  0  0
    5.9228   46.9758   54.9392 H   0  0  0  0  0  0  0  0  0  0  0  0
    8.5470   47.5380   55.4920 H   0  0  0  0  0  0  0  0  0  0  0  0
   10.3851   48.2235   53.7729 H   0  0  0  0  0  0  0  0  0  0  0  0
   10.6693   46.5362   54.2312 H   0  0  0  0  0  0  0  0  0  0  0  0
    9.8506   47.5753   51.6019 H   0  0  0  0  0  0  0  0  0  0  0  0
   10.1463   45.8930   51.9949 H   0  0  0  0  0  0  0  0  0  0  0  0
   -1.6929   43.4410   53.1359 H   0  0  0  0  0  0  0  0  0  0  0  0
  1  2  1  0
  2  3  1  0
  3  4  2  0
  3  5  1  0
  5  6  1  0
  5  7  1  0
  7  8  2  0
  8  9  1  0
  9 10  1  0
 10 11  2  0
 10 12  2  0
 10 13  1  0
 13 14  1  0
 14 15  2  0
 15 16  1  0
 16 17  2  0
 17 18  1  0
 18 19  2  0
 18 20  1  0
 20 21  1  0
 21 22  1  0
  9 23  2  0
 23 24  1  0
 23 25  1  0
 25 26  2  0
 26  2  1  0
 26  7  1  0
 19 14  1  0
 22 17  1  0
  1 27  1  0
  1 28  1  0
  1 29  1  0
  6 30  1  0
  6 31  1  0
  6 32  1  0
  8 33  1  0
 13 34  1  0
 15 35  1  0
 16 36  1  0
 19 37  1  0
 20 38  1  0
 21 39  1  0
 21 40  1  0
 22 41  1  0
 22 42  1  0
 25 43  1  0
M  END
>  <meeko>  (5) 
{"is_sidechain": [false], "free_energy": -8.795, "intermolecular_energy": -10.275, "internal_energy": -0.109}

$$$$
