ligand_81_conformer_5_docked
     RDKit          3D

 48 50  0  0  0  0  0  0  0  0999 V2000
    2.5250   46.0320   52.9230 O   0  0  0  0  0  0  0  0  0  0  0  0
    3.1910   45.1440   53.5210 C   0  0  0  0  0  0  0  0  0  0  0  0
    2.5240   44.1240   54.2820 N   0  0  0  0  0  0  0  0  0  0  0  0
    1.1280   44.1590   54.6260 C   0  0  0  0  0  0  0  0  0  0  0  0
    0.2240   43.3680   53.9040 C   0  0  0  0  0  0  0  0  0  0  0  0
   -1.1340   43.3790   54.2220 C   0  0  0  0  0  0  0  0  0  0  0  0
   -1.6010   44.1620   55.2800 C   0  0  0  0  0  0  0  0  0  0  0  0
   -0.7090   44.9330   56.0440 C   0  0  0  0  0  0  0  0  0  0  0  0
   -1.2150   45.7520   57.1730 C   0  0  0  0  0  0  0  0  0  0  0  0
   -2.2300   45.3610   57.8110 O   0  0  0  0  0  0  0  0  0  0  0  0
   -0.5410   46.9610   57.5690 N   0  0  0  0  0  0  0  0  0  0  0  0
   -1.1390   47.9750   58.3950 C   0  0  0  0  0  0  0  0  0  0  0  0
   -0.5500   48.3130   59.6220 C   0  0  0  0  0  0  0  0  0  0  0  0
   -1.1280   49.3100   60.4110 C   0  0  0  0  0  0  0  0  0  0  0  0
   -2.2840   49.9610   59.9730 C   0  0  0  0  0  0  0  0  0  0  0  0
   -3.0220   51.2140   60.9520 Cl  0  0  0  0  0  0  0  0  0  0  0  0
   -2.8420   49.6030   58.7430 C   0  0  0  0  0  0  0  0  0  0  0  0
   -2.2630   48.6310   57.9900 N   0  0  0  0  0  0  0  0  0  0  0  0
    0.6580   44.9270   55.7080 C   0  0  0  0  0  0  0  0  0  0  0  0
    4.6200   45.1210   53.4080 N   0  0  0  0  0  0  0  0  0  0  0  0
    5.3550   46.1080   52.6080 C   0  0  1  0  0  0  0  0  0  0  0  0
    6.2580   46.9670   53.5090 C   0  0  0  0  0  0  0  0  0  0  0  0
    5.5130   47.5690   54.5340 O   0  0  0  0  0  0  0  0  0  0  0  0
    6.1730   45.4110   51.5400 C   0  0  0  0  0  0  0  0  0  0  0  0
    7.3950   45.9540   51.1040 C   0  0  0  0  0  0  0  0  0  0  0  0
    8.1380   45.3120   50.1090 C   0  0  0  0  0  0  0  0  0  0  0  0
    7.6680   44.1280   49.5350 C   0  0  0  0  0  0  0  0  0  0  0  0
    8.3970   43.5150   48.5700 F   0  0  0  0  0  0  0  0  0  0  0  0
    6.4480   43.5840   49.9550 C   0  0  0  0  0  0  0  0  0  0  0  0
    5.8450   42.1000   49.2370 Cl  0  0  0  0  0  0  0  0  0  0  0  0
    5.7020   44.2250   50.9510 C   0  0  0  0  0  0  0  0  0  0  0  0
    3.0670   43.2620   54.5170 H   0  0  0  0  0  0  0  0  0  0  0  0
    0.5877   42.7346   53.0815 H   0  0  0  0  0  0  0  0  0  0  0  0
   -1.8391   42.7693   53.6379 H   0  0  0  0  0  0  0  0  0  0  0  0
   -2.6751   44.1751   55.5169 H   0  0  0  0  0  0  0  0  0  0  0  0
    0.4520   47.0950   57.2710 H   0  0  0  0  0  0  0  0  0  0  0  0
    0.3604   47.7967   59.9605 H   0  0  0  0  0  0  0  0  0  0  0  0
   -0.6740   49.5821   61.3753 H   0  0  0  0  0  0  0  0  0  0  0  0
   -3.7507   50.1083   58.3839 H   0  0  0  0  0  0  0  0  0  0  0  0
    1.3661   45.5285   56.2969 H   0  0  0  0  0  0  0  0  0  0  0  0
    5.1460   44.3760   53.9200 H   0  0  0  0  0  0  0  0  0  0  0  0
    4.6301   46.7723   52.1149 H   0  0  0  0  0  0  0  0  0  0  0  0
    7.0343   46.3281   53.9552 H   0  0  0  0  0  0  0  0  0  0  0  0
    6.7169   47.7572   52.8966 H   0  0  0  0  0  0  0  0  0  0  0  0
    5.8370   47.1790   55.3870 H   0  0  0  0  0  0  0  0  0  0  0  0
    7.7680   46.8886   51.5482 H   0  0  0  0  0  0  0  0  0  0  0  0
    9.0953   45.7402   49.7770 H   0  0  0  0  0  0  0  0  0  0  0  0
    4.7414   43.7979   51.2747 H   0  0  0  0  0  0  0  0  0  0  0  0
  1  2  2  0
  2  3  1  0
  3  4  1  0
  4  5  2  0
  5  6  1  0
  6  7  2  0
  7  8  1  0
  8  9  1  0
  9 10  2  0
  9 11  1  0
 11 12  1  0
 12 13  2  0
 13 14  1  0
 14 15  2  0
 15 16  1  0
 15 17  1  0
 17 18  2  0
  8 19  2  0
  2 20  1  0
 20 21  1  0
 21 22  1  0
 22 23  1  0
 21 24  1  0
 24 25  2  0
 25 26  1  0
 26 27  2  0
 27 28  1  0
 27 29  1  0
 29 30  1  0
 29 31  2  0
 19  4  1  0
 31 24  1  0
 18 12  1  0
  3 32  1  0
  5 33  1  0
  6 34  1  0
  7 35  1  0
 11 36  1  0
 13 37  1  0
 14 38  1  0
 17 39  1  0
 19 40  1  0
 20 41  1  0
 21 42  1  6
 22 43  1  0
 22 44  1  0
 23 45  1  0
 25 46  1  0
 26 47  1  0
 31 48  1  0
M  END
>  <meeko>  (1) 
{"is_sidechain": [false], "free_energy": -8.669, "intermolecular_energy": -11.963, "internal_energy": -0.863}

$$$$
ligand_81_conformer_5_docked
     RDKit          3D

 48 50  0  0  0  0  0  0  0  0999 V2000
    3.0790   46.1460   53.1590 O   0  0  0  0  0  0  0  0  0  0  0  0
    3.7620   45.6460   54.0940 C   0  0  0  0  0  0  0  0  0  0  0  0
    3.1240   44.8930   55.1370 N   0  0  0  0  0  0  0  0  0  0  0  0
    1.7020   44.8490   55.3460 C   0  0  0  0  0  0  0  0  0  0  0  0
    1.1850   45.1420   56.6150 C   0  0  0  0  0  0  0  0  0  0  0  0
   -0.1920   45.1130   56.8410 C   0  0  0  0  0  0  0  0  0  0  0  0
   -1.0680   44.8120   55.7970 C   0  0  0  0  0  0  0  0  0  0  0  0
   -0.5770   44.5540   54.5050 C   0  0  0  0  0  0  0  0  0  0  0  0
   -1.5190   44.2480   53.4000 C   0  0  0  0  0  0  0  0  0  0  0  0
   -2.3880   43.3480   53.5630 O   0  0  0  0  0  0  0  0  0  0  0  0
   -1.4750   44.9880   52.1670 N   0  0  0  0  0  0  0  0  0  0  0  0
   -2.0920   44.5420   50.9460 C   0  0  0  0  0  0  0  0  0  0  0  0
   -2.9410   45.4050   50.2380 C   0  0  0  0  0  0  0  0  0  0  0  0
   -3.5240   44.9690   49.0460 C   0  0  0  0  0  0  0  0  0  0  0  0
   -3.2560   43.6850   48.5690 C   0  0  0  0  0  0  0  0  0  0  0  0
   -3.9800   43.1240   47.0730 Cl  0  0  0  0  0  0  0  0  0  0  0  0
   -2.4010   42.8530   49.2960 C   0  0  0  0  0  0  0  0  0  0  0  0
   -1.8430   43.2960   50.4540 N   0  0  0  0  0  0  0  0  0  0  0  0
    0.8140   44.5730   54.2880 C   0  0  0  0  0  0  0  0  0  0  0  0
    5.1890   45.7910   54.0970 N   0  0  0  0  0  0  0  0  0  0  0  0
    5.9010   46.5090   53.0340 C   0  0  1  0  0  0  0  0  0  0  0  0
    7.1630   47.1870   53.5950 C   0  0  0  0  0  0  0  0  0  0  0  0
    7.3390   46.8710   54.9500 O   0  0  0  0  0  0  0  0  0  0  0  0
    6.2600   45.5590   51.9100 C   0  0  0  0  0  0  0  0  0  0  0  0
    7.3350   45.8400   51.0480 C   0  0  0  0  0  0  0  0  0  0  0  0
    7.6520   44.9660   50.0040 C   0  0  0  0  0  0  0  0  0  0  0  0
    6.8970   43.8060   49.8070 C   0  0  0  0  0  0  0  0  0  0  0  0
    7.2140   42.9640   48.7910 F   0  0  0  0  0  0  0  0  0  0  0  0
    5.8190   43.5210   50.6540 C   0  0  0  0  0  0  0  0  0  0  0  0
    4.8610   42.0690   50.4120 Cl  0  0  0  0  0  0  0  0  0  0  0  0
    5.5000   44.3960   51.6990 C   0  0  0  0  0  0  0  0  0  0  0  0
    3.7250   44.2670   55.7200 H   0  0  0  0  0  0  0  0  0  0  0  0
    1.8687   45.3965   57.4383 H   0  0  0  0  0  0  0  0  0  0  0  0
   -0.5879   45.3279   57.8445 H   0  0  0  0  0  0  0  0  0  0  0  0
   -2.1510   44.7763   55.9864 H   0  0  0  0  0  0  0  0  0  0  0  0
   -1.0000   45.9190   52.1630 H   0  0  0  0  0  0  0  0  0  0  0  0
   -3.1460   46.4166   50.6182 H   0  0  0  0  0  0  0  0  0  0  0  0
   -4.1935   45.6367   48.4839 H   0  0  0  0  0  0  0  0  0  0  0  0
   -2.1792   41.8392   48.9314 H   0  0  0  0  0  0  0  0  0  0  0  0
    1.2112   44.3703   53.2824 H   0  0  0  0  0  0  0  0  0  0  0  0
    5.7270   45.3710   54.8880 H   0  0  0  0  0  0  0  0  0  0  0  0
    5.2394   47.2907   52.6324 H   0  0  0  0  0  0  0  0  0  0  0  0
    8.0399   46.8420   53.0276 H   0  0  0  0  0  0  0  0  0  0  0  0
    7.0490   48.2769   53.4996 H   0  0  0  0  0  0  0  0  0  0  0  0
    6.4840   46.4750   55.2620 H   0  0  0  0  0  0  0  0  0  0  0  0
    7.9301   46.7532   51.1961 H   0  0  0  0  0  0  0  0  0  0  0  0
    8.4968   45.1914   49.3365 H   0  0  0  0  0  0  0  0  0  0  0  0
    4.6491   44.1718   52.3591 H   0  0  0  0  0  0  0  0  0  0  0  0
  1  2  2  0
  2  3  1  0
  3  4  1  0
  4  5  2  0
  5  6  1  0
  6  7  2  0
  7  8  1  0
  8  9  1  0
  9 10  2  0
  9 11  1  0
 11 12  1  0
 12 13  2  0
 13 14  1  0
 14 15  2  0
 15 16  1  0
 15 17  1  0
 17 18  2  0
  8 19  2  0
  2 20  1  0
 20 21  1  0
 21 22  1  0
 22 23  1  0
 21 24  1  0
 24 25  2  0
 25 26  1  0
 26 27  2  0
 27 28  1  0
 27 29  1  0
 29 30  1  0
 29 31  2  0
 19  4  1  0
 31 24  1  0
 18 12  1  0
  3 32  1  0
  5 33  1  0
  6 34  1  0
  7 35  1  0
 11 36  1  0
 13 37  1  0
 14 38  1  0
 17 39  1  0
 19 40  1  0
 20 41  1  0
 21 42  1  6
 22 43  1  0
 22 44  1  0
 23 45  1  0
 25 46  1  0
 26 47  1  0
 31 48  1  0
M  END
>  <meeko>  (2) 
{"is_sidechain": [false], "free_energy": -7.814, "intermolecular_energy": -11.5, "internal_energy": -0.145}

$$$$
ligand_81_conformer_5_docked
     RDKit          3D

 48 50  0  0  0  0  0  0  0  0999 V2000
    2.2000   46.3430   52.3830 O   0  0  0  0  0  0  0  0  0  0  0  0
    2.9120   45.3420   52.6640 C   0  0  0  0  0  0  0  0  0  0  0  0
    2.3160   44.0420   52.8020 N   0  0  0  0  0  0  0  0  0  0  0  0
    0.9000   43.8090   52.8780 C   0  0  0  0  0  0  0  0  0  0  0  0
    0.2490   43.9340   54.1130 C   0  0  0  0  0  0  0  0  0  0  0  0
   -1.1260   43.7200   54.2120 C   0  0  0  0  0  0  0  0  0  0  0  0
   -1.8700   43.4000   53.0740 C   0  0  0  0  0  0  0  0  0  0  0  0
   -1.2480   43.3070   51.8180 C   0  0  0  0  0  0  0  0  0  0  0  0
   -2.0510   42.9780   50.6140 C   0  0  0  0  0  0  0  0  0  0  0  0
   -2.7480   41.9270   50.6070 O   0  0  0  0  0  0  0  0  0  0  0  0
   -2.0710   43.8590   49.4770 N   0  0  0  0  0  0  0  0  0  0  0  0
   -2.5220   43.4650   48.1690 C   0  0  0  0  0  0  0  0  0  0  0  0
   -3.5580   44.1760   47.5440 C   0  0  0  0  0  0  0  0  0  0  0  0
   -3.9800   43.7960   46.2690 C   0  0  0  0  0  0  0  0  0  0  0  0
   -3.3680   42.7170   45.6260 C   0  0  0  0  0  0  0  0  0  0  0  0
   -3.8870   42.2290   44.0230 Cl  0  0  0  0  0  0  0  0  0  0  0  0
   -2.3370   42.0340   46.2740 C   0  0  0  0  0  0  0  0  0  0  0  0
   -1.9400   42.4200   47.5160 N   0  0  0  0  0  0  0  0  0  0  0  0
    0.1420   43.5120   51.7290 C   0  0  0  0  0  0  0  0  0  0  0  0
    4.3320   45.4880   52.8060 N   0  0  0  0  0  0  0  0  0  0  0  0
    5.0030   46.7810   52.6310 C   0  0  1  0  0  0  0  0  0  0  0  0
    4.8520   47.6410   53.8970 C   0  0  0  0  0  0  0  0  0  0  0  0
    3.9540   48.6960   53.6800 O   0  0  0  0  0  0  0  0  0  0  0  0
    6.4660   46.5700   52.2990 C   0  0  0  0  0  0  0  0  0  0  0  0
    6.8470   45.9290   51.1070 C   0  0  0  0  0  0  0  0  0  0  0  0
    8.1990   45.7260   50.8140 C   0  0  0  0  0  0  0  0  0  0  0  0
    9.1830   46.1530   51.7100 C   0  0  0  0  0  0  0  0  0  0  0  0
   10.4920   45.9510   51.4150 F   0  0  0  0  0  0  0  0  0  0  0  0
    8.8140   46.7850   52.9040 C   0  0  0  0  0  0  0  0  0  0  0  0
   10.0420   47.3220   54.0380 Cl  0  0  0  0  0  0  0  0  0  0  0  0
    7.4620   46.9890   53.1990 C   0  0  0  0  0  0  0  0  0  0  0  0
    2.9490   43.2110   52.7500 H   0  0  0  0  0  0  0  0  0  0  0  0
    0.8261   44.2026   55.0101 H   0  0  0  0  0  0  0  0  0  0  0  0
   -1.6254   43.8035   55.1885 H   0  0  0  0  0  0  0  0  0  0  0  0
   -2.9515   43.2194   53.1621 H   0  0  0  0  0  0  0  0  0  0  0  0
   -1.7760   44.8520   49.6130 H   0  0  0  0  0  0  0  0  0  0  0  0
   -4.0337   45.0261   48.0549 H   0  0  0  0  0  0  0  0  0  0  0  0
   -4.7929   44.3450   45.7713 H   0  0  0  0  0  0  0  0  0  0  0  0
   -1.8456   41.1831   45.7795 H   0  0  0  0  0  0  0  0  0  0  0  0
    0.6413   43.4394   50.7515 H   0  0  0  0  0  0  0  0  0  0  0  0
    4.8950   44.6400   53.0450 H   0  0  0  0  0  0  0  0  0  0  0  0
    4.5285   47.3147   51.7943 H   0  0  0  0  0  0  0  0  0  0  0  0
    4.4770   47.0116   54.7175 H   0  0  0  0  0  0  0  0  0  0  0  0
    5.8346   48.0627   54.1551 H   0  0  0  0  0  0  0  0  0  0  0  0
    4.0500   49.3140   54.4510 H   0  0  0  0  0  0  0  0  0  0  0  0
    6.0769   45.5852   50.4008 H   0  0  0  0  0  0  0  0  0  0  0  0
    8.4888   45.2292   49.8763 H   0  0  0  0  0  0  0  0  0  0  0  0
    7.1761   47.4802   54.1408 H   0  0  0  0  0  0  0  0  0  0  0  0
  1  2  2  0
  2  3  1  0
  3  4  1  0
  4  5  2  0
  5  6  1  0
  6  7  2  0
  7  8  1  0
  8  9  1  0
  9 10  2  0
  9 11  1  0
 11 12  1  0
 12 13  2  0
 13 14  1  0
 14 15  2  0
 15 16  1  0
 15 17  1  0
 17 18  2  0
  8 19  2  0
  2 20  1  0
 20 21  1  0
 21 22  1  0
 22 23  1  0
 21 24  1  0
 24 25  2  0
 25 26  1  0
 26 27  2  0
 27 28  1  0
 27 29  1  0
 29 30  1  0
 29 31  2  0
 19  4  1  0
 31 24  1  0
 18 12  1  0
  3 32  1  0
  5 33  1  0
  6 34  1  0
  7 35  1  0
 11 36  1  0
 13 37  1  0
 14 38  1  0
 17 39  1  0
 19 40  1  0
 20 41  1  0
 21 42  1  6
 22 43  1  0
 22 44  1  0
 23 45  1  0
 25 46  1  0
 26 47  1  0
 31 48  1  0
M  END
>  <meeko>  (3) 
{"is_sidechain": [false], "free_energy": -7.806, "intermolecular_energy": -10.789, "internal_energy": -0.846}

$$$$
ligand_81_conformer_5_docked
     RDKit          3D

 48 50  0  0  0  0  0  0  0  0999 V2000
    1.8940   43.4610   51.1170 O   0  0  0  0  0  0  0  0  0  0  0  0
    2.3700   42.8330   52.1020 C   0  0  0  0  0  0  0  0  0  0  0  0
    3.5980   42.1000   51.9720 N   0  0  0  0  0  0  0  0  0  0  0  0
    4.2390   41.8170   50.7160 C   0  0  0  0  0  0  0  0  0  0  0  0
    5.5370   42.2920   50.4860 C   0  0  0  0  0  0  0  0  0  0  0  0
    6.1830   42.0250   49.2780 C   0  0  0  0  0  0  0  0  0  0  0  0
    5.5470   41.2630   48.2950 C   0  0  0  0  0  0  0  0  0  0  0  0
    4.2610   40.7430   48.5170 C   0  0  0  0  0  0  0  0  0  0  0  0
    3.6000   39.9250   47.4710 C   0  0  0  0  0  0  0  0  0  0  0  0
    2.8750   38.9520   47.8160 O   0  0  0  0  0  0  0  0  0  0  0  0
    3.7470   40.2500   46.0770 N   0  0  0  0  0  0  0  0  0  0  0  0
    3.4450   39.3370   45.0080 C   0  0  0  0  0  0  0  0  0  0  0  0
    2.1430   39.2720   44.4910 C   0  0  0  0  0  0  0  0  0  0  0  0
    1.8620   38.3930   43.4420 C   0  0  0  0  0  0  0  0  0  0  0  0
    2.8770   37.5910   42.9170 C   0  0  0  0  0  0  0  0  0  0  0  0
    2.5400   36.4830   41.5990 Cl  0  0  0  0  0  0  0  0  0  0  0  0
    4.1640   37.6840   43.4500 C   0  0  0  0  0  0  0  0  0  0  0  0
    4.4180   38.5460   44.4710 N   0  0  0  0  0  0  0  0  0  0  0  0
    3.6110   41.0270   49.7340 C   0  0  0  0  0  0  0  0  0  0  0  0
    1.7070   42.8830   53.3730 N   0  0  0  0  0  0  0  0  0  0  0  0
    0.4750   43.6520   53.5790 C   0  0  1  0  0  0  0  0  0  0  0  0
   -0.7410   42.7120   53.6500 C   0  0  0  0  0  0  0  0  0  0  0  0
   -0.3540   41.3790   53.4500 O   0  0  0  0  0  0  0  0  0  0  0  0
    0.5820   44.4840   54.8410 C   0  0  0  0  0  0  0  0  0  0  0  0
    1.8380   44.8750   55.3380 C   0  0  0  0  0  0  0  0  0  0  0  0
    1.9290   45.6310   56.5110 C   0  0  0  0  0  0  0  0  0  0  0  0
    0.7710   45.9980   57.2020 C   0  0  0  0  0  0  0  0  0  0  0  0
    0.8720   46.7310   58.3380 F   0  0  0  0  0  0  0  0  0  0  0  0
   -0.4840   45.6060   56.7200 C   0  0  0  0  0  0  0  0  0  0  0  0
   -1.9450   46.0580   57.5820 Cl  0  0  0  0  0  0  0  0  0  0  0  0
   -0.5780   44.8490   55.5460 C   0  0  0  0  0  0  0  0  0  0  0  0
    4.1020   41.8390   52.8500 H   0  0  0  0  0  0  0  0  0  0  0  0
    6.0499   42.8789   51.2622 H   0  0  0  0  0  0  0  0  0  0  0  0
    7.1957   42.4156   49.0995 H   0  0  0  0  0  0  0  0  0  0  0  0
    6.0570   41.0687   47.3399 H   0  0  0  0  0  0  0  0  0  0  0  0
    4.0550   41.2160   45.8230 H   0  0  0  0  0  0  0  0  0  0  0  0
    1.3488   39.9084   44.9083 H   0  0  0  0  0  0  0  0  0  0  0  0
    0.8435   38.3330   43.0308 H   0  0  0  0  0  0  0  0  0  0  0  0
    4.9734   37.0595   43.0439 H   0  0  0  0  0  0  0  0  0  0  0  0
    2.6029   40.6277   49.9191 H   0  0  0  0  0  0  0  0  0  0  0  0
    2.1220   42.3480   54.1690 H   0  0  0  0  0  0  0  0  0  0  0  0
    0.3359   44.3304   52.7243 H   0  0  0  0  0  0  0  0  0  0  0  0
   -1.2118   42.8059   54.6397 H   0  0  0  0  0  0  0  0  0  0  0  0
   -1.4511   42.9948   52.8590 H   0  0  0  0  0  0  0  0  0  0  0  0
    0.5940   41.4000   53.1530 H   0  0  0  0  0  0  0  0  0  0  0  0
    2.7534   44.5848   54.8015 H   0  0  0  0  0  0  0  0  0  0  0  0
    2.9148   45.9376   56.8908 H   0  0  0  0  0  0  0  0  0  0  0  0
   -1.5651   44.5381   55.1732 H   0  0  0  0  0  0  0  0  0  0  0  0
  1  2  2  0
  2  3  1  0
  3  4  1  0
  4  5  2  0
  5  6  1  0
  6  7  2  0
  7  8  1  0
  8  9  1  0
  9 10  2  0
  9 11  1  0
 11 12  1  0
 12 13  2  0
 13 14  1  0
 14 15  2  0
 15 16  1  0
 15 17  1  0
 17 18  2  0
  8 19  2  0
  2 20  1  0
 20 21  1  0
 21 22  1  0
 22 23  1  0
 21 24  1  0
 24 25  2  0
 25 26  1  0
 26 27  2  0
 27 28  1  0
 27 29  1  0
 29 30  1  0
 29 31  2  0
 19  4  1  0
 31 24  1  0
 18 12  1  0
  3 32  1  0
  5 33  1  0
  6 34  1  0
  7 35  1  0
 11 36  1  0
 13 37  1  0
 14 38  1  0
 17 39  1  0
 19 40  1  0
 20 41  1  0
 21 42  1  6
 22 43  1  0
 22 44  1  0
 23 45  1  0
 25 46  1  0
 26 47  1  0
 31 48  1  0
M  END
>  <meeko>  (4) 
{"is_sidechain": [false], "free_energy": -7.598, "intermolecular_energy": -10.647, "internal_energy": -0.701}

$$$$
ligand_81_conformer_5_docked
     RDKit          3D

 48 50  0  0  0  0  0  0  0  0999 V2000
    2.7570   40.9620   47.3600 O   0  0  0  0  0  0  0  0  0  0  0  0
    3.4840   39.9950   47.7160 C   0  0  0  0  0  0  0  0  0  0  0  0
    4.2430   40.0660   48.9330 N   0  0  0  0  0  0  0  0  0  0  0  0
    4.4360   41.2710   49.6940 C   0  0  0  0  0  0  0  0  0  0  0  0
    5.6790   41.9170   49.6520 C   0  0  0  0  0  0  0  0  0  0  0  0
    5.8900   43.0910   50.3750 C   0  0  0  0  0  0  0  0  0  0  0  0
    4.8550   43.6450   51.1300 C   0  0  0  0  0  0  0  0  0  0  0  0
    3.5870   43.0390   51.1580 C   0  0  0  0  0  0  0  0  0  0  0  0
    2.4910   43.6430   51.9540 C   0  0  0  0  0  0  0  0  0  0  0  0
    1.8250   44.5950   51.4620 O   0  0  0  0  0  0  0  0  0  0  0  0
    2.1590   43.1340   53.2580 N   0  0  0  0  0  0  0  0  0  0  0  0
    1.3730   43.8580   54.2210 C   0  0  0  0  0  0  0  0  0  0  0  0
    2.0030   44.7220   55.1290 C   0  0  0  0  0  0  0  0  0  0  0  0
    1.2310   45.4320   56.0510 C   0  0  0  0  0  0  0  0  0  0  0  0
   -0.1570   45.2790   56.0600 C   0  0  0  0  0  0  0  0  0  0  0  0
   -1.1390   46.1650   57.2120 Cl  0  0  0  0  0  0  0  0  0  0  0  0
   -0.7530   44.4150   55.1400 C   0  0  0  0  0  0  0  0  0  0  0  0
    0.0160   43.7330   54.2500 N   0  0  0  0  0  0  0  0  0  0  0  0
    3.3860   41.8470   50.4350 C   0  0  0  0  0  0  0  0  0  0  0  0
    3.5230   38.7980   46.9270 N   0  0  0  0  0  0  0  0  0  0  0  0
    2.7340   38.6490   45.6990 C   0  0  1  0  0  0  0  0  0  0  0  0
    3.5730   37.9740   44.5990 C   0  0  0  0  0  0  0  0  0  0  0  0
    4.6260   37.2340   45.1580 O   0  0  0  0  0  0  0  0  0  0  0  0
    1.4770   37.8500   45.9780 C   0  0  0  0  0  0  0  0  0  0  0  0
    0.2260   38.2950   45.5140 C   0  0  0  0  0  0  0  0  0  0  0  0
   -0.9310   37.5600   45.7870 C   0  0  0  0  0  0  0  0  0  0  0  0
   -0.8530   36.3790   46.5300 C   0  0  0  0  0  0  0  0  0  0  0  0
   -1.9830   35.6740   46.7880 F   0  0  0  0  0  0  0  0  0  0  0  0
    0.3860   35.9320   47.0030 C   0  0  0  0  0  0  0  0  0  0  0  0
    0.4950   34.4510   47.9410 Cl  0  0  0  0  0  0  0  0  0  0  0  0
    1.5460   36.6660   46.7310 C   0  0  0  0  0  0  0  0  0  0  0  0
    4.5960   39.1680   49.3370 H   0  0  0  0  0  0  0  0  0  0  0  0
    6.4936   41.4954   49.0448 H   0  0  0  0  0  0  0  0  0  0  0  0
    6.8743   43.5814   50.3501 H   0  0  0  0  0  0  0  0  0  0  0  0
    5.0331   44.5637   51.7081 H   0  0  0  0  0  0  0  0  0  0  0  0
    2.4740   42.1700   53.5090 H   0  0  0  0  0  0  0  0  0  0  0  0
    3.0966   44.8393   55.1149 H   0  0  0  0  0  0  0  0  0  0  0  0
    1.7153   46.1104   56.7687 H   0  0  0  0  0  0  0  0  0  0  0  0
   -1.8454   44.2858   55.1350 H   0  0  0  0  0  0  0  0  0  0  0  0
    2.3992   41.3612   50.4493 H   0  0  0  0  0  0  0  0  0  0  0  0
    4.1390   38.0160   47.2440 H   0  0  0  0  0  0  0  0  0  0  0  0
    2.4411   39.6483   45.3446 H   0  0  0  0  0  0  0  0  0  0  0  0
    2.9281   37.2997   44.0164 H   0  0  0  0  0  0  0  0  0  0  0  0
    3.9967   38.7547   43.9501 H   0  0  0  0  0  0  0  0  0  0  0  0
    4.4940   37.2510   46.1420 H   0  0  0  0  0  0  0  0  0  0  0  0
    0.1579   39.2266   44.9331 H   0  0  0  0  0  0  0  0  0  0  0  0
   -1.9050   37.9119   45.4162 H   0  0  0  0  0  0  0  0  0  0  0  0
    2.5172   36.3139   47.1089 H   0  0  0  0  0  0  0  0  0  0  0  0
  1  2  2  0
  2  3  1  0
  3  4  1  0
  4  5  2  0
  5  6  1  0
  6  7  2  0
  7  8  1  0
  8  9  1  0
  9 10  2  0
  9 11  1  0
 11 12  1  0
 12 13  2  0
 13 14  1  0
 14 15  2  0
 15 16  1  0
 15 17  1  0
 17 18  2  0
  8 19  2  0
  2 20  1  0
 20 21  1  0
 21 22  1  0
 22 23  1  0
 21 24  1  0
 24 25  2  0
 25 26  1  0
 26 27  2  0
 27 28  1  0
 27 29  1  0
 29 30  1  0
 29 31  2  0
 19  4  1  0
 31 24  1  0
 18 12  1  0
  3 32  1  0
  5 33  1  0
  6 34  1  0
  7 35  1  0
 11 36  1  0
 13 37  1  0
 14 38  1  0
 17 39  1  0
 19 40  1  0
 20 41  1  0
 21 42  1  6
 22 43  1  0
 22 44  1  0
 23 45  1  0
 25 46  1  0
 26 47  1  0
 31 48  1  0
M  END
>  <meeko>  (5) 
{"is_sidechain": [false], "free_energy": -7.357, "intermolecular_energy": -10.246, "internal_energy": -0.769}

$$$$
