ligand_34_conformer_1_docked
     RDKit          3D

 48 51  0  0  0  0  0  0  0  0999 V2000
    8.0960   48.3180   52.1950 C   0  0  0  0  0  0  0  0  0  0  0  0
    8.6240   47.5050   53.3920 C   0  0  0  0  0  0  0  0  0  0  0  0
    9.9900   46.9050   53.0270 C   0  0  0  0  0  0  0  0  0  0  0  0
    8.8060   48.3480   54.5060 O   0  0  0  0  0  0  0  0  0  0  0  0
    7.6530   46.3600   53.7460 C   0  0  0  0  0  0  0  0  0  0  0  0
    6.9540   46.6500   54.9330 O   0  0  0  0  0  0  0  0  0  0  0  0
    5.6300   46.5330   54.6470 N   0  0  0  0  0  0  0  0  0  0  0  0
    4.9820   45.2580   54.6940 C   0  0  0  0  0  0  0  0  0  0  0  0
    5.6630   44.2210   54.9080 O   0  0  0  0  0  0  0  0  0  0  0  0
    3.5130   45.1570   54.6050 C   0  0  0  0  0  0  0  0  0  0  0  0
    2.7420   45.1640   55.7870 C   0  0  0  0  0  0  0  0  0  0  0  0
    1.3320   45.2720   55.7200 C   0  0  0  0  0  0  0  0  0  0  0  0
    0.5120   45.2560   56.9750 C   0  0  0  0  0  0  0  0  0  0  0  0
    0.6590   46.4880   57.8560 C   0  0  0  0  0  0  0  0  0  0  0  0
   -0.5970   46.2940   57.0260 C   0  0  0  0  0  0  0  0  0  0  0  0
    0.7050   45.3440   54.5070 N   0  0  0  0  0  0  0  0  0  0  0  0
    1.4500   45.3100   53.3770 C   0  0  0  0  0  0  0  0  0  0  0  0
    1.0070   45.3550   52.1480 O   0  0  0  0  0  0  0  0  0  0  0  0
    2.0030   45.2390   51.3150 N   0  0  0  0  0  0  0  0  0  0  0  0
    3.1410   45.1200   52.0440 C   0  0  0  0  0  0  0  0  0  0  0  0
    4.4300   44.7470   51.4360 C   0  0  0  0  0  0  0  0  0  0  0  0
    4.7140   43.4060   51.1260 C   0  0  0  0  0  0  0  0  0  0  0  0
    5.8970   43.0700   50.4600 C   0  0  0  0  0  0  0  0  0  0  0  0
    6.8050   44.0700   50.1010 C   0  0  0  0  0  0  0  0  0  0  0  0
    6.5250   45.4070   50.3960 C   0  0  0  0  0  0  0  0  0  0  0  0
    5.3360   45.7480   51.0500 C   0  0  0  0  0  0  0  0  0  0  0  0
    2.8080   45.1890   53.3920 C   0  0  0  0  0  0  0  0  0  0  0  0
    7.5313   49.1874   52.5628 H   0  0  0  0  0  0  0  0  0  0  0  0
    8.9430   48.6628   51.5837 H   0  0  0  0  0  0  0  0  0  0  0  0
    7.4366   47.6844   51.5837 H   0  0  0  0  0  0  0  0  0  0  0  0
   10.5417   46.6627   53.9473 H   0  0  0  0  0  0  0  0  0  0  0  0
    9.8421   45.9890   52.4362 H   0  0  0  0  0  0  0  0  0  0  0  0
   10.5645   47.6336   52.4362 H   0  0  0  0  0  0  0  0  0  0  0  0
    7.9140   48.5440   54.8950 H   0  0  0  0  0  0  0  0  0  0  0  0
    6.9325   46.2307   52.9250 H   0  0  0  0  0  0  0  0  0  0  0  0
    8.2330   45.4370   53.8934 H   0  0  0  0  0  0  0  0  0  0  0  0
    5.0590   47.4020   54.5330 H   0  0  0  0  0  0  0  0  0  0  0  0
    3.2390   45.0852   56.7651 H   0  0  0  0  0  0  0  0  0  0  0  0
    0.5742   44.1698   57.1373 H   0  0  0  0  0  0  0  0  0  0  0  0
    0.6154   46.3897   58.9507 H   0  0  0  0  0  0  0  0  0  0  0  0
    1.4085   47.2867   57.9575 H   0  0  0  0  0  0  0  0  0  0  0  0
   -1.5507   46.0556   57.5196 H   0  0  0  0  0  0  0  0  0  0  0  0
   -1.1341   46.8947   56.2773 H   0  0  0  0  0  0  0  0  0  0  0  0
    4.0021   42.6165   51.4087 H   0  0  0  0  0  0  0  0  0  0  0  0
    6.1128   42.0187   50.2187 H   0  0  0  0  0  0  0  0  0  0  0  0
    7.7402   43.8046   49.5862 H   0  0  0  0  0  0  0  0  0  0  0  0
    7.2409   46.1929   50.1135 H   0  0  0  0  0  0  0  0  0  0  0  0
    5.1103   46.8034   51.2624 H   0  0  0  0  0  0  0  0  0  0  0  0
  1  2  1  0
  2  3  1  0
  2  4  1  0
  2  5  1  0
  5  6  1  0
  6  7  1  0
  7  8  1  0
  8  9  2  0
  8 10  1  0
 10 11  2  0
 11 12  1  0
 12 13  1  0
 13 14  1  0
 14 15  1  0
 12 16  2  0
 16 17  1  0
 17 18  1  0
 18 19  1  0
 19 20  2  0
 20 21  1  0
 21 22  2  0
 22 23  1  0
 23 24  2  0
 24 25  1  0
 25 26  2  0
 20 27  1  0
 27 10  1  0
 15 13  1  0
 27 17  2  0
 26 21  1  0
  1 28  1  0
  1 29  1  0
  1 30  1  0
  3 31  1  0
  3 32  1  0
  3 33  1  0
  4 34  1  0
  5 35  1  0
  5 36  1  0
  7 37  1  0
 11 38  1  0
 13 39  1  0
 14 40  1  0
 14 41  1  0
 15 42  1  0
 15 43  1  0
 22 44  1  0
 23 45  1  0
 24 46  1  0
 25 47  1  0
 26 48  1  0
M  END
>  <meeko>  (1) 
{"is_sidechain": [false], "free_energy": -9.452, "intermolecular_energy": -13.044, "internal_energy": -1.065}

$$$$
ligand_34_conformer_1_docked
     RDKit          3D

 48 51  0  0  0  0  0  0  0  0999 V2000
    0.9260   45.1960   54.6060 C   0  0  0  0  0  0  0  0  0  0  0  0
    2.4000   45.3300   54.1790 C   0  0  0  0  0  0  0  0  0  0  0  0
    3.2110   45.9030   55.3510 C   0  0  0  0  0  0  0  0  0  0  0  0
    2.9290   44.0630   53.8650 O   0  0  0  0  0  0  0  0  0  0  0  0
    2.5340   46.2760   52.9680 C   0  0  0  0  0  0  0  0  0  0  0  0
    3.8590   46.7370   52.8420 O   0  0  0  0  0  0  0  0  0  0  0  0
    4.4490   45.9710   51.8860 N   0  0  0  0  0  0  0  0  0  0  0  0
    5.4880   45.0480   52.2290 C   0  0  0  0  0  0  0  0  0  0  0  0
    5.9260   45.0130   53.4080 O   0  0  0  0  0  0  0  0  0  0  0  0
    5.9730   44.0620   51.2440 C   0  0  0  0  0  0  0  0  0  0  0  0
    5.2030   42.9110   50.9740 C   0  0  0  0  0  0  0  0  0  0  0  0
    5.5440   42.0590   49.8960 C   0  0  0  0  0  0  0  0  0  0  0  0
    4.7380   40.8240   49.6240 C   0  0  0  0  0  0  0  0  0  0  0  0
    3.2420   41.0510   49.4750 C   0  0  0  0  0  0  0  0  0  0  0  0
    4.0920   40.7740   48.2490 C   0  0  0  0  0  0  0  0  0  0  0  0
    6.6380   42.3330   49.1230 N   0  0  0  0  0  0  0  0  0  0  0  0
    7.3880   43.4250   49.4040 C   0  0  0  0  0  0  0  0  0  0  0  0
    8.4650   43.8160   48.7760 O   0  0  0  0  0  0  0  0  0  0  0  0
    8.9560   44.8740   49.3590 N   0  0  0  0  0  0  0  0  0  0  0  0
    8.1530   45.1800   50.4080 C   0  0  0  0  0  0  0  0  0  0  0  0
    8.5290   46.1800   51.4220 C   0  0  0  0  0  0  0  0  0  0  0  0
    7.7920   47.3700   51.5620 C   0  0  0  0  0  0  0  0  0  0  0  0
    8.0920   48.2690   52.5900 C   0  0  0  0  0  0  0  0  0  0  0  0
    9.1280   47.9890   53.4840 C   0  0  0  0  0  0  0  0  0  0  0  0
    9.8570   46.8030   53.3600 C   0  0  0  0  0  0  0  0  0  0  0  0
    9.5520   45.8950   52.3400 C   0  0  0  0  0  0  0  0  0  0  0  0
    7.1090   44.2630   50.4440 C   0  0  0  0  0  0  0  0  0  0  0  0
    0.8614   45.1901   55.7041 H   0  0  0  0  0  0  0  0  0  0  0  0
    0.3507   46.0455   54.2094 H   0  0  0  0  0  0  0  0  0  0  0  0
    0.5133   44.2566   54.2094 H   0  0  0  0  0  0  0  0  0  0  0  0
    2.7583   45.5832   56.3012 H   0  0  0  0  0  0  0  0  0  0  0  0
    4.2460   45.5345   55.2956 H   0  0  0  0  0  0  0  0  0  0  0  0
    3.2094   47.0016   55.2956 H   0  0  0  0  0  0  0  0  0  0  0  0
    3.9170   44.1440   53.8130 H   0  0  0  0  0  0  0  0  0  0  0  0
    2.2514   45.7343   52.0533 H   0  0  0  0  0  0  0  0  0  0  0  0
    1.8710   47.1407   53.1190 H   0  0  0  0  0  0  0  0  0  0  0  0
    4.0400   45.9580   50.9240 H   0  0  0  0  0  0  0  0  0  0  0  0
    4.3332   42.6744   51.6044 H   0  0  0  0  0  0  0  0  0  0  0  0
    5.3677   40.1448   50.2174 H   0  0  0  0  0  0  0  0  0  0  0  0
    2.5321   40.2917   49.8349 H   0  0  0  0  0  0  0  0  0  0  0  0
    2.5428   41.8462   49.7728 H   0  0  0  0  0  0  0  0  0  0  0  0
    3.9980   39.8140   47.7203 H   0  0  0  0  0  0  0  0  0  0  0  0
    4.2637   41.2855   47.2904 H   0  0  0  0  0  0  0  0  0  0  0  0
    6.9759   47.5943   50.8594 H   0  0  0  0  0  0  0  0  0  0  0  0
    7.5116   49.1976   52.6948 H   0  0  0  0  0  0  0  0  0  0  0  0
    9.3702   48.7021   54.2858 H   0  0  0  0  0  0  0  0  0  0  0  0
   10.6719   46.5830   54.0654 H   0  0  0  0  0  0  0  0  0  0  0  0
   10.1160   44.9543   52.2572 H   0  0  0  0  0  0  0  0  0  0  0  0
  1  2  1  0
  2  3  1  0
  2  4  1  0
  2  5  1  0
  5  6  1  0
  6  7  1  0
  7  8  1  0
  8  9  2  0
  8 10  1  0
 10 11  2  0
 11 12  1  0
 12 13  1  0
 13 14  1  0
 14 15  1  0
 12 16  2  0
 16 17  1  0
 17 18  1  0
 18 19  1  0
 19 20  2  0
 20 21  1  0
 21 22  2  0
 22 23  1  0
 23 24  2  0
 24 25  1  0
 25 26  2  0
 20 27  1  0
 27 10  1  0
 15 13  1  0
 27 17  2  0
 26 21  1  0
  1 28  1  0
  1 29  1  0
  1 30  1  0
  3 31  1  0
  3 32  1  0
  3 33  1  0
  4 34  1  0
  5 35  1  0
  5 36  1  0
  7 37  1  0
 11 38  1  0
 13 39  1  0
 14 40  1  0
 14 41  1  0
 15 42  1  0
 15 43  1  0
 22 44  1  0
 23 45  1  0
 24 46  1  0
 25 47  1  0
 26 48  1  0
M  END
>  <meeko>  (2) 
{"is_sidechain": [false], "free_energy": -8.781, "intermolecular_energy": -11.966, "internal_energy": -1.217}

$$$$
ligand_34_conformer_1_docked
     RDKit          3D

 48 51  0  0  0  0  0  0  0  0999 V2000
    0.0770   46.0460   56.6320 C   0  0  0  0  0  0  0  0  0  0  0  0
    0.4720   45.1460   55.4460 C   0  0  0  0  0  0  0  0  0  0  0  0
   -0.5610   44.0170   55.3080 C   0  0  0  0  0  0  0  0  0  0  0  0
    0.4630   45.8900   54.2500 O   0  0  0  0  0  0  0  0  0  0  0  0
    1.8650   44.5240   55.6730 C   0  0  0  0  0  0  0  0  0  0  0  0
    2.8470   45.5280   55.7740 O   0  0  0  0  0  0  0  0  0  0  0  0
    3.7600   45.2810   54.7970 N   0  0  0  0  0  0  0  0  0  0  0  0
    3.9450   46.2040   53.7190 C   0  0  0  0  0  0  0  0  0  0  0  0
    3.1890   47.2050   53.6200 O   0  0  0  0  0  0  0  0  0  0  0  0
    5.0790   46.0550   52.7870 C   0  0  0  0  0  0  0  0  0  0  0  0
    6.1740   46.9390   52.8770 C   0  0  0  0  0  0  0  0  0  0  0  0
    7.3550   46.6930   52.1350 C   0  0  0  0  0  0  0  0  0  0  0  0
    8.5100   47.6460   52.2140 C   0  0  0  0  0  0  0  0  0  0  0  0
    9.3970   47.4830   53.4390 C   0  0  0  0  0  0  0  0  0  0  0  0
    9.8800   47.0000   52.0830 C   0  0  0  0  0  0  0  0  0  0  0  0
    7.4320   45.6090   51.3050 N   0  0  0  0  0  0  0  0  0  0  0  0
    6.3660   44.7800   51.2030 C   0  0  0  0  0  0  0  0  0  0  0  0
    6.2740   43.7160   50.4500 O   0  0  0  0  0  0  0  0  0  0  0  0
    5.0820   43.1980   50.5620 N   0  0  0  0  0  0  0  0  0  0  0  0
    4.3780   43.9630   51.4330 C   0  0  0  0  0  0  0  0  0  0  0  0
    2.9260   43.8030   51.6270 C   0  0  0  0  0  0  0  0  0  0  0  0
    2.0220   44.6940   51.0220 C   0  0  0  0  0  0  0  0  0  0  0  0
    0.6440   44.4800   51.1280 C   0  0  0  0  0  0  0  0  0  0  0  0
    0.1590   43.3780   51.8380 C   0  0  0  0  0  0  0  0  0  0  0  0
    1.0520   42.4810   52.4310 C   0  0  0  0  0  0  0  0  0  0  0  0
    2.4320   42.6850   52.3170 C   0  0  0  0  0  0  0  0  0  0  0  0
    5.2030   44.9870   51.8850 C   0  0  0  0  0  0  0  0  0  0  0  0
    0.3039   45.5290   57.5761 H   0  0  0  0  0  0  0  0  0  0  0  0
    0.6449   46.9868   56.5834 H   0  0  0  0  0  0  0  0  0  0  0  0
   -0.9999   46.2649   56.5834 H   0  0  0  0  0  0  0  0  0  0  0  0
   -0.8704   43.6789   56.3080 H   0  0  0  0  0  0  0  0  0  0  0  0
   -1.4387   44.3882   54.7586 H   0  0  0  0  0  0  0  0  0  0  0  0
   -0.1134   43.1756   54.7586 H   0  0  0  0  0  0  0  0  0  0  0  0
    0.7610   45.2950   53.5130 H   0  0  0  0  0  0  0  0  0  0  0  0
    1.8513   43.9371   56.6033 H   0  0  0  0  0  0  0  0  0  0  0  0
    2.1073   43.8766   54.8174 H   0  0  0  0  0  0  0  0  0  0  0  0
    4.4270   44.4830   54.9180 H   0  0  0  0  0  0  0  0  0  0  0  0
    6.1106   47.8242   53.5269 H   0  0  0  0  0  0  0  0  0  0  0  0
    7.9941   48.4897   51.7324 H   0  0  0  0  0  0  0  0  0  0  0  0
    9.8590   48.3659   53.9048 H   0  0  0  0  0  0  0  0  0  0  0  0
    9.2764   47.0227   54.4308 H   0  0  0  0  0  0  0  0  0  0  0  0
   10.6921   47.5330   51.5668 H   0  0  0  0  0  0  0  0  0  0  0  0
   10.2543   46.0448   51.6862 H   0  0  0  0  0  0  0  0  0  0  0  0
    2.4001   45.5627   50.4632 H   0  0  0  0  0  0  0  0  0  0  0  0
   -0.0589   45.1796   50.6521 H   0  0  0  0  0  0  0  0  0  0  0  0
   -0.9252   43.2167   51.9301 H   0  0  0  0  0  0  0  0  0  0  0  0
    0.6695   41.6132   52.9883 H   0  0  0  0  0  0  0  0  0  0  0  0
    3.1316   41.9669   52.7696 H   0  0  0  0  0  0  0  0  0  0  0  0
  1  2  1  0
  2  3  1  0
  2  4  1  0
  2  5  1  0
  5  6  1  0
  6  7  1  0
  7  8  1  0
  8  9  2  0
  8 10  1  0
 10 11  2  0
 11 12  1  0
 12 13  1  0
 13 14  1  0
 14 15  1  0
 12 16  2  0
 16 17  1  0
 17 18  1  0
 18 19  1  0
 19 20  2  0
 20 21  1  0
 21 22  2  0
 22 23  1  0
 23 24  2  0
 24 25  1  0
 25 26  2  0
 20 27  1  0
 27 10  1  0
 15 13  1  0
 27 17  2  0
 26 21  1  0
  1 28  1  0
  1 29  1  0
  1 30  1  0
  3 31  1  0
  3 32  1  0
  3 33  1  0
  4 34  1  0
  5 35  1  0
  5 36  1  0
  7 37  1  0
 11 38  1  0
 13 39  1  0
 14 40  1  0
 14 41  1  0
 15 42  1  0
 15 43  1  0
 22 44  1  0
 23 45  1  0
 24 46  1  0
 25 47  1  0
 26 48  1  0
M  END
>  <meeko>  (3) 
{"is_sidechain": [false], "free_energy": -8.664, "intermolecular_energy": -11.241, "internal_energy": -1.781}

$$$$
ligand_34_conformer_1_docked
     RDKit          3D

 48 51  0  0  0  0  0  0  0  0999 V2000
    5.8130   41.8290   47.3610 C   0  0  0  0  0  0  0  0  0  0  0  0
    5.5880   41.5010   48.8480 C   0  0  0  0  0  0  0  0  0  0  0  0
    4.2880   40.6950   48.9930 C   0  0  0  0  0  0  0  0  0  0  0  0
    6.6460   40.7060   49.3330 O   0  0  0  0  0  0  0  0  0  0  0  0
    5.4700   42.7940   49.6820 C   0  0  0  0  0  0  0  0  0  0  0  0
    6.4550   43.7240   49.2970 O   0  0  0  0  0  0  0  0  0  0  0  0
    6.8160   44.3980   50.4210 N   0  0  0  0  0  0  0  0  0  0  0  0
    5.9830   45.4350   50.9510 C   0  0  0  0  0  0  0  0  0  0  0  0
    4.9550   45.7920   50.3190 O   0  0  0  0  0  0  0  0  0  0  0  0
    6.2550   46.0110   52.2820 C   0  0  0  0  0  0  0  0  0  0  0  0
    7.5300   46.5450   52.5620 C   0  0  0  0  0  0  0  0  0  0  0  0
    7.7510   47.2800   53.7520 C   0  0  0  0  0  0  0  0  0  0  0  0
    9.1130   47.8290   54.0590 C   0  0  0  0  0  0  0  0  0  0  0  0
   10.0320   46.8840   54.8180 C   0  0  0  0  0  0  0  0  0  0  0  0
   10.2570   47.1350   53.3380 C   0  0  0  0  0  0  0  0  0  0  0  0
    6.7370   47.4550   54.6520 N   0  0  0  0  0  0  0  0  0  0  0  0
    5.5230   46.9160   54.3880 C   0  0  0  0  0  0  0  0  0  0  0  0
    4.4590   46.9790   55.1450 O   0  0  0  0  0  0  0  0  0  0  0  0
    3.4900   46.2960   54.6030 N   0  0  0  0  0  0  0  0  0  0  0  0
    3.9510   45.7740   53.4390 C   0  0  0  0  0  0  0  0  0  0  0  0
    3.1980   44.7650   52.6750 C   0  0  0  0  0  0  0  0  0  0  0  0
    2.1650   45.1510   51.8030 C   0  0  0  0  0  0  0  0  0  0  0  0
    1.5210   44.1980   51.0070 C   0  0  0  0  0  0  0  0  0  0  0  0
    1.9020   42.8550   51.0760 C   0  0  0  0  0  0  0  0  0  0  0  0
    2.9350   42.4650   51.9320 C   0  0  0  0  0  0  0  0  0  0  0  0
    3.5910   43.4170   52.7210 C   0  0  0  0  0  0  0  0  0  0  0  0
    5.2680   46.1850   53.2640 C   0  0  0  0  0  0  0  0  0  0  0  0
    6.4333   42.7333   47.2748 H   0  0  0  0  0  0  0  0  0  0  0  0
    6.3239   40.9860   46.8728 H   0  0  0  0  0  0  0  0  0  0  0  0
    4.8426   42.0021   46.8728 H   0  0  0  0  0  0  0  0  0  0  0  0
    4.0609   40.5542   50.0601 H   0  0  0  0  0  0  0  0  0  0  0  0
    3.4629   41.2402   48.5114 H   0  0  0  0  0  0  0  0  0  0  0  0
    4.4094   39.7135   48.5114 H   0  0  0  0  0  0  0  0  0  0  0  0
    6.3530   40.2860   50.1830 H   0  0  0  0  0  0  0  0  0  0  0  0
    4.4749   43.2357   49.5252 H   0  0  0  0  0  0  0  0  0  0  0  0
    5.6130   42.5452   50.7439 H   0  0  0  0  0  0  0  0  0  0  0  0
    7.6350   44.0550   50.9750 H   0  0  0  0  0  0  0  0  0  0  0  0
    8.3564   46.3898   51.8528 H   0  0  0  0  0  0  0  0  0  0  0  0
    8.7887   48.8720   54.1890 H   0  0  0  0  0  0  0  0  0  0  0  0
   10.7417   47.2831   55.5576 H   0  0  0  0  0  0  0  0  0  0  0  0
    9.8848   45.9899   55.4416 H   0  0  0  0  0  0  0  0  0  0  0  0
   11.1300   47.7157   53.0054 H   0  0  0  0  0  0  0  0  0  0  0  0
   10.3404   46.4976   52.4454 H   0  0  0  0  0  0  0  0  0  0  0  0
    1.8619   46.2069   51.7465 H   0  0  0  0  0  0  0  0  0  0  0  0
    0.7139   44.5058   50.3260 H   0  0  0  0  0  0  0  0  0  0  0  0
    1.3885   42.1051   50.4563 H   0  0  0  0  0  0  0  0  0  0  0  0
    3.2334   41.4076   51.9860 H   0  0  0  0  0  0  0  0  0  0  0  0
    4.4168   43.1088   53.3791 H   0  0  0  0  0  0  0  0  0  0  0  0
  1  2  1  0
  2  3  1  0
  2  4  1  0
  2  5  1  0
  5  6  1  0
  6  7  1  0
  7  8  1  0
  8  9  2  0
  8 10  1  0
 10 11  2  0
 11 12  1  0
 12 13  1  0
 13 14  1  0
 14 15  1  0
 12 16  2  0
 16 17  1  0
 17 18  1  0
 18 19  1  0
 19 20  2  0
 20 21  1  0
 21 22  2  0
 22 23  1  0
 23 24  2  0
 24 25  1  0
 25 26  2  0
 20 27  1  0
 27 10  1  0
 15 13  1  0
 27 17  2  0
 26 21  1  0
  1 28  1  0
  1 29  1  0
  1 30  1  0
  3 31  1  0
  3 32  1  0
  3 33  1  0
  4 34  1  0
  5 35  1  0
  5 36  1  0
  7 37  1  0
 11 38  1  0
 13 39  1  0
 14 40  1  0
 14 41  1  0
 15 42  1  0
 15 43  1  0
 22 44  1  0
 23 45  1  0
 24 46  1  0
 25 47  1  0
 26 48  1  0
M  END
>  <meeko>  (4) 
{"is_sidechain": [false], "free_energy": -8.535, "intermolecular_energy": -12.271, "internal_energy": -0.572}

$$$$
ligand_34_conformer_1_docked
     RDKit          3D

 48 51  0  0  0  0  0  0  0  0999 V2000
    6.8300   43.0970   49.5820 C   0  0  0  0  0  0  0  0  0  0  0  0
    6.2510   41.6700   49.6020 C   0  0  0  0  0  0  0  0  0  0  0  0
    5.6680   41.3470   48.2180 C   0  0  0  0  0  0  0  0  0  0  0  0
    7.2730   40.7370   49.8690 O   0  0  0  0  0  0  0  0  0  0  0  0
    5.1320   41.5490   50.6570 C   0  0  0  0  0  0  0  0  0  0  0  0
    4.1360   42.5200   50.4390 O   0  0  0  0  0  0  0  0  0  0  0  0
    4.6290   43.6970   50.9080 N   0  0  0  0  0  0  0  0  0  0  0  0
    4.5530   44.0180   52.3010 C   0  0  0  0  0  0  0  0  0  0  0  0
    3.9390   43.2490   53.0850 O   0  0  0  0  0  0  0  0  0  0  0  0
    5.2790   45.1820   52.8450 C   0  0  0  0  0  0  0  0  0  0  0  0
    6.6820   45.1250   52.9820 C   0  0  0  0  0  0  0  0  0  0  0  0
    7.4170   46.2900   53.3080 C   0  0  0  0  0  0  0  0  0  0  0  0
    8.9050   46.2230   53.4750 C   0  0  0  0  0  0  0  0  0  0  0  0
    9.7100   46.8450   52.3440 C   0  0  0  0  0  0  0  0  0  0  0  0
    9.5860   47.5680   53.6730 C   0  0  0  0  0  0  0  0  0  0  0  0
    6.7680   47.4760   53.5180 N   0  0  0  0  0  0  0  0  0  0  0  0
    5.4190   47.5170   53.4110 C   0  0  0  0  0  0  0  0  0  0  0  0
    4.6530   48.5590   53.5930 O   0  0  0  0  0  0  0  0  0  0  0  0
    3.4010   48.2150   53.4650 N   0  0  0  0  0  0  0  0  0  0  0  0
    3.3630   46.8890   53.1820 C   0  0  0  0  0  0  0  0  0  0  0  0
    2.1090   46.1170   53.1950 C   0  0  0  0  0  0  0  0  0  0  0  0
    1.4730   45.7660   51.9910 C   0  0  0  0  0  0  0  0  0  0  0  0
    0.3370   44.9490   52.0050 C   0  0  0  0  0  0  0  0  0  0  0  0
   -0.1710   44.4790   53.2190 C   0  0  0  0  0  0  0  0  0  0  0  0
    0.4620   44.8130   54.4190 C   0  0  0  0  0  0  0  0  0  0  0  0
    1.6060   45.6200   54.4080 C   0  0  0  0  0  0  0  0  0  0  0  0
    4.6690   46.4160   53.1170 C   0  0  0  0  0  0  0  0  0  0  0  0
    6.9729   43.4492   50.6142 H   0  0  0  0  0  0  0  0  0  0  0  0
    7.7976   43.0928   49.0587 H   0  0  0  0  0  0  0  0  0  0  0  0
    6.1331   43.7682   49.0587 H   0  0  0  0  0  0  0  0  0  0  0  0
    4.7115   40.8171   48.3376 H   0  0  0  0  0  0  0  0  0  0  0  0
    5.5022   42.2819   47.6627 H   0  0  0  0  0  0  0  0  0  0  0  0
    6.3728   40.7107   47.6627 H   0  0  0  0  0  0  0  0  0  0  0  0
    7.2100   40.4750   50.8240 H   0  0  0  0  0  0  0  0  0  0  0  0
    4.6809   40.5479   50.5918 H   0  0  0  0  0  0  0  0  0  0  0  0
    5.5677   41.7068   51.6546 H   0  0  0  0  0  0  0  0  0  0  0  0
    5.1910   44.3010   50.2650 H   0  0  0  0  0  0  0  0  0  0  0  0
    7.2076   44.1700   52.8347 H   0  0  0  0  0  0  0  0  0  0  0  0
    8.9164   45.2558   53.9988 H   0  0  0  0  0  0  0  0  0  0  0  0
   10.6722   46.4030   52.0462 H   0  0  0  0  0  0  0  0  0  0  0  0
    9.5047   47.1052   51.2951 H   0  0  0  0  0  0  0  0  0  0  0  0
   10.4585   47.6499   54.3378 H   0  0  0  0  0  0  0  0  0  0  0  0
    9.2537   48.5690   53.9853 H   0  0  0  0  0  0  0  0  0  0  0  0
    1.8702   46.1353   51.0340 H   0  0  0  0  0  0  0  0  0  0  0  0
   -0.1562   44.6767   51.0602 H   0  0  0  0  0  0  0  0  0  0  0  0
   -1.0701   43.8454   53.2299 H   0  0  0  0  0  0  0  0  0  0  0  0
    0.0610   44.4414   55.3735 H   0  0  0  0  0  0  0  0  0  0  0  0
    2.1126   45.8656   55.3530 H   0  0  0  0  0  0  0  0  0  0  0  0
  1  2  1  0
  2  3  1  0
  2  4  1  0
  2  5  1  0
  5  6  1  0
  6  7  1  0
  7  8  1  0
  8  9  2  0
  8 10  1  0
 10 11  2  0
 11 12  1  0
 12 13  1  0
 13 14  1  0
 14 15  1  0
 12 16  2  0
 16 17  1  0
 17 18  1  0
 18 19  1  0
 19 20  2  0
 20 21  1  0
 21 22  2  0
 22 23  1  0
 23 24  2  0
 24 25  1  0
 25 26  2  0
 20 27  1  0
 27 10  1  0
 15 13  1  0
 27 17  2  0
 26 21  1  0
  1 28  1  0
  1 29  1  0
  1 30  1  0
  3 31  1  0
  3 32  1  0
  3 33  1  0
  4 34  1  0
  5 35  1  0
  5 36  1  0
  7 37  1  0
 11 38  1  0
 13 39  1  0
 14 40  1  0
 14 41  1  0
 15 42  1  0
 15 43  1  0
 22 44  1  0
 23 45  1  0
 24 46  1  0
 25 47  1  0
 26 48  1  0
M  END
>  <meeko>  (5) 
{"is_sidechain": [false], "free_energy": -8.212, "intermolecular_energy": -12.244, "internal_energy": -0.154}

$$$$
