ligand_49_conformer_3_docked
     RDKit          3D

 44 47  0  0  0  0  0  0  0  0999 V2000
    0.0830   44.8230   51.9200 O   0  0  0  0  0  0  0  0  0  0  0  0
    1.3140   44.6620   51.7010 C   0  0  0  0  0  0  0  0  0  0  0  0
    1.7940   43.3200   51.2180 C   0  0  0  0  0  0  0  0  0  0  0  0
    3.1750   42.7120   52.2460 S   0  0  0  0  0  0  0  0  0  0  0  0
    4.2140   42.2460   50.8570 C   0  0  0  0  0  0  0  0  0  0  0  0
    3.8290   41.1900   50.0210 C   0  0  0  0  0  0  0  0  0  0  0  0
    4.6350   40.8220   48.9400 C   0  0  0  0  0  0  0  0  0  0  0  0
    5.8290   41.5060   48.6930 C   0  0  0  0  0  0  0  0  0  0  0  0
    6.2170   42.5620   49.5240 C   0  0  0  0  0  0  0  0  0  0  0  0
    7.8570   43.4810   49.1990 Br  0  0  0  0  0  0  0  0  0  0  0  0
    5.4040   42.9380   50.6000 C   0  0  0  0  0  0  0  0  0  0  0  0
    2.2330   45.7350   51.9780 N   0  0  0  0  0  0  0  0  0  0  0  0
    3.1420   46.2680   50.9480 C   0  0  0  0  0  0  0  0  0  0  0  0
    4.6040   46.1070   51.4000 C   0  0  0  0  0  0  0  0  0  0  0  0
    4.7420   46.5430   52.8350 C   0  0  0  0  0  0  0  0  0  0  0  0
    3.6890   46.5800   53.7130 C   0  0  0  0  0  0  0  0  0  0  0  0
    4.1300   46.7910   54.9680 N   0  0  0  0  0  0  0  0  0  0  0  0
    5.4740   46.8530   54.8240 C   0  0  0  0  0  0  0  0  0  0  0  0
    5.8770   46.6980   53.5410 N   0  0  0  0  0  0  0  0  0  0  0  0
    7.2360   46.6330   53.0800 C   0  0  0  0  0  0  0  0  0  0  0  0
    8.2960   46.8760   53.9690 C   0  0  0  0  0  0  0  0  0  0  0  0
    9.6200   46.8110   53.5250 C   0  0  0  0  0  0  0  0  0  0  0  0
    9.8960   46.5210   52.1850 C   0  0  0  0  0  0  0  0  0  0  0  0
   11.1810   46.4610   51.7550 F   0  0  0  0  0  0  0  0  0  0  0  0
    8.8470   46.3050   51.2880 C   0  0  0  0  0  0  0  0  0  0  0  0
    7.5210   46.3660   51.7300 C   0  0  0  0  0  0  0  0  0  0  0  0
    2.2640   46.3530   53.3130 C   0  0  0  0  0  0  0  0  0  0  0  0
    0.9633   42.6008   51.2693 H   0  0  0  0  0  0  0  0  0  0  0  0
    2.1478   43.4259   50.1819 H   0  0  0  0  0  0  0  0  0  0  0  0
    2.8909   40.6495   50.2156 H   0  0  0  0  0  0  0  0  0  0  0  0
    4.3298   39.9939   48.2834 H   0  0  0  0  0  0  0  0  0  0  0  0
    6.4642   41.2133   47.8440 H   0  0  0  0  0  0  0  0  0  0  0  0
    5.7005   43.7785   51.2447 H   0  0  0  0  0  0  0  0  0  0  0  0
    2.9890   45.7181   50.0077 H   0  0  0  0  0  0  0  0  0  0  0  0
    2.9274   47.3360   50.7956 H   0  0  0  0  0  0  0  0  0  0  0  0
    4.9012   45.0519   51.3081 H   0  0  0  0  0  0  0  0  0  0  0  0
    5.2523   46.7296   50.7659 H   0  0  0  0  0  0  0  0  0  0  0  0
    6.1675   47.0128   55.6628 H   0  0  0  0  0  0  0  0  0  0  0  0
    8.0831   47.1188   55.0205 H   0  0  0  0  0  0  0  0  0  0  0  0
   10.4454   46.9881   54.2302 H   0  0  0  0  0  0  0  0  0  0  0  0
    9.0640   46.0865   50.2320 H   0  0  0  0  0  0  0  0  0  0  0  0
    6.6982   46.2043   51.0180 H   0  0  0  0  0  0  0  0  0  0  0  0
    1.7790   45.6849   54.0399 H   0  0  0  0  0  0  0  0  0  0  0  0
    1.7273   47.3129   53.2904 H   0  0  0  0  0  0  0  0  0  0  0  0
  1  2  2  0
  2  3  1  0
  3  4  1  0
  4  5  1  0
  5  6  2  0
  6  7  1  0
  7  8  2  0
  8  9  1  0
  9 10  1  0
  9 11  2  0
  2 12  1  0
 12 13  1  0
 13 14  1  0
 14 15  1  0
 15 16  2  0
 16 17  1  0
 17 18  2  0
 18 19  1  0
 19 20  1  0
 20 21  2  0
 21 22  1  0
 22 23  2  0
 23 24  1  0
 23 25  1  0
 25 26  2  0
 16 27  1  0
 11  5  1  0
 27 12  1  0
 19 15  1  0
 26 20  1  0
  3 28  1  0
  3 29  1  0
  6 30  1  0
  7 31  1  0
  8 32  1  0
 11 33  1  0
 13 34  1  0
 13 35  1  0
 14 36  1  0
 14 37  1  0
 18 38  1  0
 21 39  1  0
 22 40  1  0
 25 41  1  0
 26 42  1  0
 27 43  1  0
 27 44  1  0
M  END
>  <meeko>  (1) 
{"is_sidechain": [false], "free_energy": -10.186, "intermolecular_energy": -13.163, "internal_energy": -0.626}

$$$$
ligand_49_conformer_3_docked
     RDKit          3D

 44 47  0  0  0  0  0  0  0  0999 V2000
    1.8210   43.6330   50.8710 O   0  0  0  0  0  0  0  0  0  0  0  0
    1.4940   44.6380   51.5570 C   0  0  0  0  0  0  0  0  0  0  0  0
    0.1080   44.7000   52.1370 C   0  0  0  0  0  0  0  0  0  0  0  0
   -0.1830   43.3060   53.2820 S   0  0  0  0  0  0  0  0  0  0  0  0
   -0.0910   44.3030   54.7730 C   0  0  0  0  0  0  0  0  0  0  0  0
    1.1560   44.6030   55.3360 C   0  0  0  0  0  0  0  0  0  0  0  0
    1.2320   45.3770   56.4980 C   0  0  0  0  0  0  0  0  0  0  0  0
    0.0640   45.8510   57.1010 C   0  0  0  0  0  0  0  0  0  0  0  0
   -1.1830   45.5550   56.5410 C   0  0  0  0  0  0  0  0  0  0  0  0
   -2.7800   46.1850   57.3760 Br  0  0  0  0  0  0  0  0  0  0  0  0
   -1.2590   44.7900   55.3710 C   0  0  0  0  0  0  0  0  0  0  0  0
    2.4250   45.7250   51.7160 N   0  0  0  0  0  0  0  0  0  0  0  0
    3.3930   46.0840   50.6640 C   0  0  0  0  0  0  0  0  0  0  0  0
    4.8280   45.9650   51.2040 C   0  0  0  0  0  0  0  0  0  0  0  0
    4.9130   46.6060   52.5640 C   0  0  0  0  0  0  0  0  0  0  0  0
    3.8230   46.7920   53.3770 C   0  0  0  0  0  0  0  0  0  0  0  0
    4.2130   47.1770   54.6060 N   0  0  0  0  0  0  0  0  0  0  0  0
    5.5630   47.1940   54.5190 C   0  0  0  0  0  0  0  0  0  0  0  0
    6.0190   46.8440   53.2940 N   0  0  0  0  0  0  0  0  0  0  0  0
    7.3950   46.6870   52.9130 C   0  0  0  0  0  0  0  0  0  0  0  0
    8.4190   46.9820   53.8270 C   0  0  0  0  0  0  0  0  0  0  0  0
    9.7600   46.8300   53.4610 C   0  0  0  0  0  0  0  0  0  0  0  0
   10.0890   46.3970   52.1730 C   0  0  0  0  0  0  0  0  0  0  0  0
   11.3900   46.2510   51.8190 F   0  0  0  0  0  0  0  0  0  0  0  0
    9.0770   46.1270   51.2480 C   0  0  0  0  0  0  0  0  0  0  0  0
    7.7350   46.2770   51.6120 C   0  0  0  0  0  0  0  0  0  0  0  0
    2.4120   46.5330   52.9460 C   0  0  0  0  0  0  0  0  0  0  0  0
   -0.0112   45.6466   52.6845 H   0  0  0  0  0  0  0  0  0  0  0  0
   -0.6201   44.6372   51.3148 H   0  0  0  0  0  0  0  0  0  0  0  0
    2.0764   44.2293   54.8635 H   0  0  0  0  0  0  0  0  0  0  0  0
    2.2122   45.6130   56.9379 H   0  0  0  0  0  0  0  0  0  0  0  0
    0.1253   46.4574   58.0167 H   0  0  0  0  0  0  0  0  0  0  0  0
   -2.2385   44.5712   54.9208 H   0  0  0  0  0  0  0  0  0  0  0  0
    3.2688   45.4045   49.8080 H   0  0  0  0  0  0  0  0  0  0  0  0
    3.2123   47.1217   50.3471 H   0  0  0  0  0  0  0  0  0  0  0  0
    5.1022   44.9026   51.2826 H   0  0  0  0  0  0  0  0  0  0  0  0
    5.5193   46.4749   50.5170 H   0  0  0  0  0  0  0  0  0  0  0  0
    6.2218   47.4644   55.3574 H   0  0  0  0  0  0  0  0  0  0  0  0
    8.1648   47.3349   54.8374 H   0  0  0  0  0  0  0  0  0  0  0  0
   10.5564   47.0512   54.1868 H   0  0  0  0  0  0  0  0  0  0  0  0
    9.3364   45.7958   50.2316 H   0  0  0  0  0  0  0  0  0  0  0  0
    6.9422   46.0733   50.8772 H   0  0  0  0  0  0  0  0  0  0  0  0
    1.8787   45.9883   53.7390 H   0  0  0  0  0  0  0  0  0  0  0  0
    1.9010   47.4885   52.7564 H   0  0  0  0  0  0  0  0  0  0  0  0
  1  2  2  0
  2  3  1  0
  3  4  1  0
  4  5  1  0
  5  6  2  0
  6  7  1  0
  7  8  2  0
  8  9  1  0
  9 10  1  0
  9 11  2  0
  2 12  1  0
 12 13  1  0
 13 14  1  0
 14 15  1  0
 15 16  2  0
 16 17  1  0
 17 18  2  0
 18 19  1  0
 19 20  1  0
 20 21  2  0
 21 22  1  0
 22 23  2  0
 23 24  1  0
 23 25  1  0
 25 26  2  0
 16 27  1  0
 11  5  1  0
 27 12  1  0
 19 15  1  0
 26 20  1  0
  3 28  1  0
  3 29  1  0
  6 30  1  0
  7 31  1  0
  8 32  1  0
 11 33  1  0
 13 34  1  0
 13 35  1  0
 14 36  1  0
 14 37  1  0
 18 38  1  0
 21 39  1  0
 22 40  1  0
 25 41  1  0
 26 42  1  0
 27 43  1  0
 27 44  1  0
M  END
>  <meeko>  (2) 
{"is_sidechain": [false], "free_energy": -8.631, "intermolecular_energy": -11.572, "internal_energy": -0.208}

$$$$
ligand_49_conformer_3_docked
     RDKit          3D

 44 47  0  0  0  0  0  0  0  0999 V2000
    5.3930   43.8010   51.3150 O   0  0  0  0  0  0  0  0  0  0  0  0
    4.7170   44.8620   51.3930 C   0  0  0  0  0  0  0  0  0  0  0  0
    5.4400   46.1810   51.4260 C   0  0  0  0  0  0  0  0  0  0  0  0
    5.6480   46.7670   53.1440 S   0  0  0  0  0  0  0  0  0  0  0  0
    7.4420   46.8140   53.0800 C   0  0  0  0  0  0  0  0  0  0  0  0
    8.1050   46.5360   51.8780 C   0  0  0  0  0  0  0  0  0  0  0  0
    9.5020   46.5690   51.8240 C   0  0  0  0  0  0  0  0  0  0  0  0
   10.2390   46.8770   52.9710 C   0  0  0  0  0  0  0  0  0  0  0  0
    9.5810   47.1560   54.1730 C   0  0  0  0  0  0  0  0  0  0  0  0
   10.5880   47.5550   55.7440 Br  0  0  0  0  0  0  0  0  0  0  0  0
    8.1820   47.1350   54.2240 C   0  0  0  0  0  0  0  0  0  0  0  0
    3.2840   44.7860   51.5120 N   0  0  0  0  0  0  0  0  0  0  0  0
    2.4530   45.9860   51.7120 C   0  0  0  0  0  0  0  0  0  0  0  0
    1.6650   45.8690   53.0280 C   0  0  0  0  0  0  0  0  0  0  0  0
    1.0550   44.4960   53.1330 C   0  0  0  0  0  0  0  0  0  0  0  0
    1.5340   43.4060   52.4500 C   0  0  0  0  0  0  0  0  0  0  0  0
    0.9480   42.2780   52.8940 N   0  0  0  0  0  0  0  0  0  0  0  0
    0.1260   42.7140   53.8760 C   0  0  0  0  0  0  0  0  0  0  0  0
    0.1740   44.0550   54.0510 N   0  0  0  0  0  0  0  0  0  0  0  0
   -0.5160   44.8050   55.0640 C   0  0  0  0  0  0  0  0  0  0  0  0
    0.1950   45.3460   56.1480 C   0  0  0  0  0  0  0  0  0  0  0  0
   -0.4720   46.0790   57.1350 C   0  0  0  0  0  0  0  0  0  0  0  0
   -1.8550   46.2620   57.0570 C   0  0  0  0  0  0  0  0  0  0  0  0
   -2.5010   46.9700   58.0160 F   0  0  0  0  0  0  0  0  0  0  0  0
   -2.5740   45.7040   55.9960 C   0  0  0  0  0  0  0  0  0  0  0  0
   -1.9090   44.9730   55.0060 C   0  0  0  0  0  0  0  0  0  0  0  0
    2.6040   43.4850   51.4060 C   0  0  0  0  0  0  0  0  0  0  0  0
    6.4310   46.0603   50.9641 H   0  0  0  0  0  0  0  0  0  0  0  0
    4.8455   46.9219   50.8713 H   0  0  0  0  0  0  0  0  0  0  0  0
    7.5261   46.2914   50.9752 H   0  0  0  0  0  0  0  0  0  0  0  0
   10.0210   46.3525   50.8786 H   0  0  0  0  0  0  0  0  0  0  0  0
   11.3379   46.9000   52.9281 H   0  0  0  0  0  0  0  0  0  0  0  0
    7.6634   47.3712   55.1649 H   0  0  0  0  0  0  0  0  0  0  0  0
    3.1004   46.8743   51.7532 H   0  0  0  0  0  0  0  0  0  0  0  0
    1.7451   46.0777   50.8750 H   0  0  0  0  0  0  0  0  0  0  0  0
    2.3446   46.0333   53.8772 H   0  0  0  0  0  0  0  0  0  0  0  0
    0.8662   46.6251   53.0432 H   0  0  0  0  0  0  0  0  0  0  0  0
   -0.5153   42.0471   54.4710 H   0  0  0  0  0  0  0  0  0  0  0  0
    1.2818   45.1924   56.2210 H   0  0  0  0  0  0  0  0  0  0  0  0
    0.0929   46.5119   57.9737 H   0  0  0  0  0  0  0  0  0  0  0  0
   -3.6641   45.8399   55.9395 H   0  0  0  0  0  0  0  0  0  0  0  0
   -2.4800   44.5276   54.1780 H   0  0  0  0  0  0  0  0  0  0  0  0
    3.3317   42.6750   51.5621 H   0  0  0  0  0  0  0  0  0  0  0  0
    2.1558   43.3810   50.4068 H   0  0  0  0  0  0  0  0  0  0  0  0
  1  2  2  0
  2  3  1  0
  3  4  1  0
  4  5  1  0
  5  6  2  0
  6  7  1  0
  7  8  2  0
  8  9  1  0
  9 10  1  0
  9 11  2  0
  2 12  1  0
 12 13  1  0
 13 14  1  0
 14 15  1  0
 15 16  2  0
 16 17  1  0
 17 18  2  0
 18 19  1  0
 19 20  1  0
 20 21  2  0
 21 22  1  0
 22 23  2  0
 23 24  1  0
 23 25  1  0
 25 26  2  0
 16 27  1  0
 11  5  1  0
 27 12  1  0
 19 15  1  0
 26 20  1  0
  3 28  1  0
  3 29  1  0
  6 30  1  0
  7 31  1  0
  8 32  1  0
 11 33  1  0
 13 34  1  0
 13 35  1  0
 14 36  1  0
 14 37  1  0
 18 38  1  0
 21 39  1  0
 22 40  1  0
 25 41  1  0
 26 42  1  0
 27 43  1  0
 27 44  1  0
M  END
>  <meeko>  (3) 
{"is_sidechain": [false], "free_energy": -8.348, "intermolecular_energy": -10.783, "internal_energy": -0.631}

$$$$
ligand_49_conformer_3_docked
     RDKit          3D

 44 47  0  0  0  0  0  0  0  0999 V2000
   10.4450   44.1160   50.5910 O   0  0  0  0  0  0  0  0  0  0  0  0
    9.5270   44.9760   50.5050 C   0  0  0  0  0  0  0  0  0  0  0  0
    9.7730   46.3550   51.0530 C   0  0  0  0  0  0  0  0  0  0  0  0
    9.9330   46.3160   52.8720 S   0  0  0  0  0  0  0  0  0  0  0  0
    8.1990   46.6590   53.1900 C   0  0  0  0  0  0  0  0  0  0  0  0
    7.5700   47.7340   52.5500 C   0  0  0  0  0  0  0  0  0  0  0  0
    6.2220   48.0070   52.7960 C   0  0  0  0  0  0  0  0  0  0  0  0
    5.4980   47.2080   53.6860 C   0  0  0  0  0  0  0  0  0  0  0  0
    6.1210   46.1320   54.3270 C   0  0  0  0  0  0  0  0  0  0  0  0
    5.1380   45.0540   55.5590 Br  0  0  0  0  0  0  0  0  0  0  0  0
    7.4680   45.8520   54.0720 C   0  0  0  0  0  0  0  0  0  0  0  0
    8.2530   44.6030   49.9480 N   0  0  0  0  0  0  0  0  0  0  0  0
    7.0990   45.5200   49.9550 C   0  0  0  0  0  0  0  0  0  0  0  0
    5.9290   44.8910   50.7300 C   0  0  0  0  0  0  0  0  0  0  0  0
    5.7550   43.4560   50.3080 C   0  0  0  0  0  0  0  0  0  0  0  0
    6.7590   42.7130   49.7390 C   0  0  0  0  0  0  0  0  0  0  0  0
    6.4010   41.4170   49.6680 N   0  0  0  0  0  0  0  0  0  0  0  0
    5.1710   41.3960   50.2310 C   0  0  0  0  0  0  0  0  0  0  0  0
    4.7540   42.6180   50.6370 N   0  0  0  0  0  0  0  0  0  0  0  0
    3.5360   42.9090   51.3410 C   0  0  0  0  0  0  0  0  0  0  0  0
    3.5810   43.5090   52.6100 C   0  0  0  0  0  0  0  0  0  0  0  0
    2.3980   43.7960   53.2980 C   0  0  0  0  0  0  0  0  0  0  0  0
    1.1620   43.4700   52.7320 C   0  0  0  0  0  0  0  0  0  0  0  0
    0.0150   43.7470   53.4010 F   0  0  0  0  0  0  0  0  0  0  0  0
    1.1090   42.8480   51.4810 C   0  0  0  0  0  0  0  0  0  0  0  0
    2.2910   42.5620   50.7900 C   0  0  0  0  0  0  0  0  0  0  0  0
    8.0800   43.2820   49.3230 C   0  0  0  0  0  0  0  0  0  0  0  0
   10.7012   46.7547   50.6185 H   0  0  0  0  0  0  0  0  0  0  0  0
    8.9180   46.9950   50.7895 H   0  0  0  0  0  0  0  0  0  0  0  0
    8.1388   48.3654   51.8515 H   0  0  0  0  0  0  0  0  0  0  0  0
    5.7303   48.8506   52.2894 H   0  0  0  0  0  0  0  0  0  0  0  0
    4.4378   47.4256   53.8823 H   0  0  0  0  0  0  0  0  0  0  0  0
    7.9539   44.9970   54.5647 H   0  0  0  0  0  0  0  0  0  0  0  0
    7.3884   46.4654   50.4372 H   0  0  0  0  0  0  0  0  0  0  0  0
    6.7836   45.7098   48.9184 H   0  0  0  0  0  0  0  0  0  0  0  0
    6.1406   44.9320   51.8087 H   0  0  0  0  0  0  0  0  0  0  0  0
    5.0062   45.4492   50.5136 H   0  0  0  0  0  0  0  0  0  0  0  0
    4.5719   40.4807   50.3468 H   0  0  0  0  0  0  0  0  0  0  0  0
    4.5519   43.7544   53.0651 H   0  0  0  0  0  0  0  0  0  0  0  0
    2.4400   44.2787   54.2855 H   0  0  0  0  0  0  0  0  0  0  0  0
    0.1368   42.5833   51.0397 H   0  0  0  0  0  0  0  0  0  0  0  0
    2.2456   42.0631   49.8107 H   0  0  0  0  0  0  0  0  0  0  0  0
    8.8890   42.6115   49.6487 H   0  0  0  0  0  0  0  0  0  0  0  0
    8.1121   43.3827   48.2281 H   0  0  0  0  0  0  0  0  0  0  0  0
  1  2  2  0
  2  3  1  0
  3  4  1  0
  4  5  1  0
  5  6  2  0
  6  7  1  0
  7  8  2  0
  8  9  1  0
  9 10  1  0
  9 11  2  0
  2 12  1  0
 12 13  1  0
 13 14  1  0
 14 15  1  0
 15 16  2  0
 16 17  1  0
 17 18  2  0
 18 19  1  0
 19 20  1  0
 20 21  2  0
 21 22  1  0
 22 23  2  0
 23 24  1  0
 23 25  1  0
 25 26  2  0
 16 27  1  0
 11  5  1  0
 27 12  1  0
 19 15  1  0
 26 20  1  0
  3 28  1  0
  3 29  1  0
  6 30  1  0
  7 31  1  0
  8 32  1  0
 11 33  1  0
 13 34  1  0
 13 35  1  0
 14 36  1  0
 14 37  1  0
 18 38  1  0
 21 39  1  0
 22 40  1  0
 25 41  1  0
 26 42  1  0
 27 43  1  0
 27 44  1  0
M  END
>  <meeko>  (4) 
{"is_sidechain": [false], "free_energy": -8.144, "intermolecular_energy": -9.766, "internal_energy": -1.385}

$$$$
ligand_49_conformer_3_docked
     RDKit          3D

 44 47  0  0  0  0  0  0  0  0999 V2000
    0.9510   42.1010   53.8010 O   0  0  0  0  0  0  0  0  0  0  0  0
    0.9460   43.3610   53.8250 C   0  0  0  0  0  0  0  0  0  0  0  0
   -0.0120   44.0640   54.7480 C   0  0  0  0  0  0  0  0  0  0  0  0
    0.8870   44.9810   56.0470 S   0  0  0  0  0  0  0  0  0  0  0  0
   -0.5920   45.5950   56.8600 C   0  0  0  0  0  0  0  0  0  0  0  0
   -1.7800   44.8550   56.8010 C   0  0  0  0  0  0  0  0  0  0  0  0
   -2.9330   45.3300   57.4310 C   0  0  0  0  0  0  0  0  0  0  0  0
   -2.9050   46.5470   58.1180 C   0  0  0  0  0  0  0  0  0  0  0  0
   -1.7210   47.2890   58.1800 C   0  0  0  0  0  0  0  0  0  0  0  0
   -1.6880   48.9610   59.1000 Br  0  0  0  0  0  0  0  0  0  0  0  0
   -0.5620   46.8080   57.5600 C   0  0  0  0  0  0  0  0  0  0  0  0
    1.8040   44.0930   52.9310 N   0  0  0  0  0  0  0  0  0  0  0  0
    3.0170   43.4930   52.3480 C   0  0  0  0  0  0  0  0  0  0  0  0
    4.2570   44.3070   52.7570 C   0  0  0  0  0  0  0  0  0  0  0  0
    3.9780   45.7770   52.5850 C   0  0  0  0  0  0  0  0  0  0  0  0
    2.7120   46.3050   52.5670 C   0  0  0  0  0  0  0  0  0  0  0  0
    2.7620   47.6490   52.6220 N   0  0  0  0  0  0  0  0  0  0  0  0
    4.0870   47.9130   52.6990 C   0  0  0  0  0  0  0  0  0  0  0  0
    4.8510   46.7970   52.6860 N   0  0  0  0  0  0  0  0  0  0  0  0
    6.2790   46.7430   52.8370 C   0  0  0  0  0  0  0  0  0  0  0  0
    7.0970   46.4880   51.7250 C   0  0  0  0  0  0  0  0  0  0  0  0
    8.4870   46.4360   51.8660 C   0  0  0  0  0  0  0  0  0  0  0  0
    9.0700   46.6230   53.1240 C   0  0  0  0  0  0  0  0  0  0  0  0
   10.4180   46.5710   53.2600 F   0  0  0  0  0  0  0  0  0  0  0  0
    8.2620   46.8510   54.2410 C   0  0  0  0  0  0  0  0  0  0  0  0
    6.8710   46.9050   54.1010 C   0  0  0  0  0  0  0  0  0  0  0  0
    1.4660   45.4740   52.5510 C   0  0  0  0  0  0  0  0  0  0  0  0
   -0.6210   44.7703   54.1647 H   0  0  0  0  0  0  0  0  0  0  0  0
   -0.6524   43.3104   55.2296 H   0  0  0  0  0  0  0  0  0  0  0  0
   -1.8051   43.8987   56.2580 H   0  0  0  0  0  0  0  0  0  0  0  0
   -3.8639   44.7456   57.3863 H   0  0  0  0  0  0  0  0  0  0  0  0
   -3.8147   46.9214   58.6102 H   0  0  0  0  0  0  0  0  0  0  0  0
    0.3735   47.3832   57.6225 H   0  0  0  0  0  0  0  0  0  0  0  0
    3.1232   42.4603   52.7117 H   0  0  0  0  0  0  0  0  0  0  0  0
    2.9294   43.4959   51.2515 H   0  0  0  0  0  0  0  0  0  0  0  0
    4.4984   44.1013   53.8103 H   0  0  0  0  0  0  0  0  0  0  0  0
    5.1073   44.0205   52.1207 H   0  0  0  0  0  0  0  0  0  0  0  0
    4.5001   48.9303   52.7653 H   0  0  0  0  0  0  0  0  0  0  0  0
    6.6415   46.3281   50.7366 H   0  0  0  0  0  0  0  0  0  0  0  0
    9.1223   46.2481   50.9879 H   0  0  0  0  0  0  0  0  0  0  0  0
    8.7201   46.9882   55.2316 H   0  0  0  0  0  0  0  0  0  0  0  0
    6.2380   47.0750   54.9844 H   0  0  0  0  0  0  0  0  0  0  0  0
    0.7393   45.8857   53.2668 H   0  0  0  0  0  0  0  0  0  0  0  0
    1.0264   45.4841   51.5427 H   0  0  0  0  0  0  0  0  0  0  0  0
  1  2  2  0
  2  3  1  0
  3  4  1  0
  4  5  1  0
  5  6  2  0
  6  7  1  0
  7  8  2  0
  8  9  1  0
  9 10  1  0
  9 11  2  0
  2 12  1  0
 12 13  1  0
 13 14  1  0
 14 15  1  0
 15 16  2  0
 16 17  1  0
 17 18  2  0
 18 19  1  0
 19 20  1  0
 20 21  2  0
 21 22  1  0
 22 23  2  0
 23 24  1  0
 23 25  1  0
 25 26  2  0
 16 27  1  0
 11  5  1  0
 27 12  1  0
 19 15  1  0
 26 20  1  0
  3 28  1  0
  3 29  1  0
  6 30  1  0
  7 31  1  0
  8 32  1  0
 11 33  1  0
 13 34  1  0
 13 35  1  0
 14 36  1  0
 14 37  1  0
 18 38  1  0
 21 39  1  0
 22 40  1  0
 25 41  1  0
 26 42  1  0
 27 43  1  0
 27 44  1  0
M  END
>  <meeko>  (5) 
{"is_sidechain": [false], "free_energy": -7.951, "intermolecular_energy": -10.197, "internal_energy": -0.704}

$$$$
