MODEL 1
REMARK VINA RESULT:    -8.830      0.000      0.000
REMARK INTER + INTRA:         -10.289
REMARK INTER:                 -10.379
REMARK INTRA:                   0.090
REMARK UNBOUND:                 0.090
REMARK SMILES C[C@H]1OCC[C@@]1(C)NC(=O)C1CCN(c2ccc(C#N)cc2F)CC1
REMARK SMILES IDX 11 1 12 2 13 3 14 4 24 5 25 6 9 7 8 8 10 9 6 11 2 12 3 13
REMARK SMILES IDX 4 14 5 15 1 16 7 17 15 18 16 19 22 20 17 21 21 22 18 23
REMARK SMILES IDX 19 24 20 25 23 26
REMARK H PARENT 8 10
ROOT
ATOM      1  C   UNL     1       5.010  45.458  50.835  1.00  0.00     0.082 C 
ATOM      2  C   UNL     1       3.588  46.051  50.617  1.00  0.00     0.035 C 
ATOM      3  C   UNL     1       2.466  45.096  51.041  1.00  0.00     0.117 C 
ATOM      4  N   UNL     1       2.772  44.519  52.356  1.00  0.00    -0.369 N 
ATOM      5  C   UNL     1       4.047  43.814  52.558  1.00  0.00     0.117 C 
ATOM      6  C   UNL     1       5.001  44.007  51.368  1.00  0.00     0.035 C 
ENDROOT
BRANCH   1   7
ATOM      7  C   UNL     1       5.878  46.346  51.701  1.00  0.00     0.223 C 
ATOM      8  N   UNL     1       7.316  46.289  51.621  1.00  0.00    -0.348 N 
ATOM      9  O   UNL     1       5.316  47.176  52.466  1.00  0.00    -0.275 OA
ATOM     10  H   UNL     1       7.718  45.540  51.020  1.00  0.00     0.164 HD
BRANCH   8  11
ATOM     11  C   UNL     1       8.225  47.267  52.259  1.00  0.00     0.065 C 
ATOM     12  C   UNL     1       8.563  46.890  53.717  1.00  0.00     0.140 C 
ATOM     13  O   UNL     1       9.562  45.898  53.687  1.00  0.00    -0.376 OA
ATOM     14  C   UNL     1      10.270  46.068  52.477  1.00  0.00     0.163 C 
ATOM     15  C   UNL     1       9.609  47.161  51.648  1.00  0.00     0.059 C 
ATOM     16  C   UNL     1       7.380  46.426  54.578  1.00  0.00     0.041 C 
ATOM     17  C   UNL     1       7.645  48.695  52.171  1.00  0.00     0.037 C 
ENDBRANCH   8  11
ENDBRANCH   1   7
BRANCH   4  18
ATOM     18  C   UNL     1       1.843  44.640  53.451  1.00  0.00     0.073 A 
ATOM     19  C   UNL     1       0.591  44.002  53.388  1.00  0.00     0.030 A 
ATOM     20  C   UNL     1       2.179  45.370  54.608  1.00  0.00     0.147 A 
ATOM     21  C   UNL     1      -0.309  44.098  54.452  1.00  0.00     0.022 A 
ATOM     22  C   UNL     1       1.276  45.461  55.673  1.00  0.00     0.061 A 
ATOM     23  C   UNL     1       0.031  44.827  55.597  1.00  0.00     0.055 A 
ATOM     24  C   UNL     1      -0.895  44.921  56.694  1.00  0.00     0.099 C 
ATOM     25  N   UNL     1      -1.639  44.997  57.578  1.00  0.00    -0.192 NA
ATOM     26  F   UNL     1       3.393  45.962  54.729  1.00  0.00    -0.205 F 
ENDBRANCH   4  18
TORSDOF 3
ENDMDL
MODEL 2
REMARK VINA RESULT:    -8.785      2.790      7.777
REMARK INTER + INTRA:         -10.236
REMARK INTER:                 -10.038
REMARK INTRA:                  -0.197
REMARK UNBOUND:                 0.090
REMARK SMILES C[C@H]1OCC[C@@]1(C)NC(=O)C1CCN(c2ccc(C#N)cc2F)CC1
REMARK SMILES IDX 11 1 12 2 13 3 14 4 24 5 25 6 9 7 8 8 10 9 6 11 2 12 3 13
REMARK SMILES IDX 4 14 5 15 1 16 7 17 15 18 16 19 22 20 17 21 21 22 18 23
REMARK SMILES IDX 19 24 20 25 23 26
REMARK H PARENT 8 10
ROOT
ATOM      1  C   UNL     1       3.717  44.551  51.091  1.00  0.00     0.082 C 
ATOM      2  C   UNL     1       5.081  43.802  51.119  1.00  0.00     0.035 C 
ATOM      3  C   UNL     1       6.279  44.724  50.867  1.00  0.00     0.117 C 
ATOM      4  N   UNL     1       6.152  45.941  51.678  1.00  0.00    -0.369 N 
ATOM      5  C   UNL     1       4.936  46.762  51.565  1.00  0.00     0.117 C 
ATOM      6  C   UNL     1       3.843  46.053  50.749  1.00  0.00     0.035 C 
ENDROOT
BRANCH   1   7
ATOM      7  C   UNL     1       2.925  44.351  52.365  1.00  0.00     0.223 C 
ATOM      8  N   UNL     1       1.489  44.476  52.377  1.00  0.00    -0.348 N 
ATOM      9  O   UNL     1       3.543  44.026  53.414  1.00  0.00    -0.275 OA
ATOM     10  H   UNL     1       1.045  44.810  51.497  1.00  0.00     0.164 HD
BRANCH   8  11
ATOM     11  C   UNL     1       0.627  44.082  53.514  1.00  0.00     0.065 C 
ATOM     12  C   UNL     1      -0.873  44.114  53.152  1.00  0.00     0.140 C 
ATOM     13  O   UNL     1      -1.172  42.933  52.445  1.00  0.00    -0.376 OA
ATOM     14  C   UNL     1      -0.233  41.963  52.854  1.00  0.00     0.163 C 
ATOM     15  C   UNL     1       0.784  42.599  53.792  1.00  0.00     0.059 C 
ATOM     16  C   UNL     1      -1.344  45.341  52.360  1.00  0.00     0.041 C 
ATOM     17  C   UNL     1       0.921  44.953  54.754  1.00  0.00     0.037 C 
ENDBRANCH   8  11
ENDBRANCH   1   7
BRANCH   4  18
ATOM     18  C   UNL     1       7.198  46.338  52.586  1.00  0.00     0.073 A 
ATOM     19  C   UNL     1       6.884  46.710  53.905  1.00  0.00     0.030 A 
ATOM     20  C   UNL     1       8.547  46.334  52.181  1.00  0.00     0.147 A 
ATOM     21  C   UNL     1       7.893  47.078  54.798  1.00  0.00     0.022 A 
ATOM     22  C   UNL     1       9.555  46.701  53.080  1.00  0.00     0.061 A 
ATOM     23  C   UNL     1       9.231  47.075  54.388  1.00  0.00     0.055 A 
ATOM     24  C   UNL     1      10.270  47.449  55.310  1.00  0.00     0.099 C 
ATOM     25  N   UNL     1      11.107  47.750  56.052  1.00  0.00    -0.192 NA
ATOM     26  F   UNL     1       8.898  45.937  50.932  1.00  0.00    -0.205 F 
ENDBRANCH   4  18
TORSDOF 3
ENDMDL
MODEL 3
REMARK VINA RESULT:    -8.070      2.990      8.275
REMARK INTER + INTRA:          -9.396
REMARK INTER:                  -8.834
REMARK INTRA:                  -0.561
REMARK UNBOUND:                 0.090
REMARK SMILES C[C@H]1OCC[C@@]1(C)NC(=O)C1CCN(c2ccc(C#N)cc2F)CC1
REMARK SMILES IDX 11 1 12 2 13 3 14 4 24 5 25 6 9 7 8 8 10 9 6 11 2 12 3 13
REMARK SMILES IDX 4 14 5 15 1 16 7 17 15 18 16 19 22 20 17 21 21 22 18 23
REMARK SMILES IDX 19 24 20 25 23 26
REMARK H PARENT 8 10
ROOT
ATOM      1  C   UNL     1       0.596  44.428  53.322  1.00  0.00     0.082 C 
ATOM      2  C   UNL     1       1.816  43.462  53.329  1.00  0.00     0.035 C 
ATOM      3  C   UNL     1       2.986  43.964  52.476  1.00  0.00     0.117 C 
ATOM      4  N   UNL     1       3.236  45.383  52.757  1.00  0.00    -0.369 N 
ATOM      5  C   UNL     1       2.141  46.354  52.613  1.00  0.00     0.117 C 
ATOM      6  C   UNL     1       0.785  45.658  52.406  1.00  0.00     0.035 C 
ENDROOT
BRANCH   1   7
ATOM      7  C   UNL     1       0.189  44.850  54.718  1.00  0.00     0.223 C 
ATOM      8  N   UNL     1      -1.153  45.292  55.001  1.00  0.00    -0.348 N 
ATOM      9  O   UNL     1       1.040  44.766  55.645  1.00  0.00    -0.275 OA
ATOM     10  H   UNL     1      -1.788  45.401  54.184  1.00  0.00     0.164 HD
BRANCH   8  11
ATOM     11  C   UNL     1      -1.690  45.506  56.364  1.00  0.00     0.065 C 
ATOM     12  C   UNL     1      -3.211  45.772  56.360  1.00  0.00     0.140 C 
ATOM     13  O   UNL     1      -3.866  44.532  56.238  1.00  0.00    -0.376 OA
ATOM     14  C   UNL     1      -2.994  43.555  56.763  1.00  0.00     0.163 C 
ATOM     15  C   UNL     1      -1.668  44.202  57.139  1.00  0.00     0.059 C 
ATOM     16  C   UNL     1      -3.715  46.748  55.290  1.00  0.00     0.041 C 
ATOM     17  C   UNL     1      -0.927  46.638  57.084  1.00  0.00     0.037 C 
ENDBRANCH   8  11
ENDBRANCH   1   7
BRANCH   4  18
ATOM     18  C   UNL     1       4.539  45.835  53.178  1.00  0.00     0.073 A 
ATOM     19  C   UNL     1       5.367  46.535  52.283  1.00  0.00     0.030 A 
ATOM     20  C   UNL     1       4.992  45.611  54.493  1.00  0.00     0.147 A 
ATOM     21  C   UNL     1       6.623  46.993  52.687  1.00  0.00     0.022 A 
ATOM     22  C   UNL     1       6.250  46.074  54.895  1.00  0.00     0.061 A 
ATOM     23  C   UNL     1       7.067  46.764  53.994  1.00  0.00     0.055 A 
ATOM     24  C   UNL     1       8.359  47.241  54.411  1.00  0.00     0.099 C 
ATOM     25  N   UNL     1       9.399  47.625  54.747  1.00  0.00    -0.192 NA
ATOM     26  F   UNL     1       4.206  44.982  55.403  1.00  0.00    -0.205 F 
ENDBRANCH   4  18
TORSDOF 3
ENDMDL
MODEL 4
REMARK VINA RESULT:    -8.062      2.306      3.154
REMARK INTER + INTRA:          -9.386
REMARK INTER:                  -8.605
REMARK INTRA:                  -0.781
REMARK UNBOUND:                 0.090
REMARK SMILES C[C@H]1OCC[C@@]1(C)NC(=O)C1CCN(c2ccc(C#N)cc2F)CC1
REMARK SMILES IDX 11 1 12 2 13 3 14 4 24 5 25 6 9 7 8 8 10 9 6 11 2 12 3 13
REMARK SMILES IDX 4 14 5 15 1 16 7 17 15 18 16 19 22 20 17 21 21 22 18 23
REMARK SMILES IDX 19 24 20 25 23 26
REMARK H PARENT 8 10
ROOT
ATOM      1  C   UNL     1       3.452  43.730  50.950  1.00  0.00     0.082 C 
ATOM      2  C   UNL     1       2.281  44.743  50.798  1.00  0.00     0.035 C 
ATOM      3  C   UNL     1       0.983  44.265  51.458  1.00  0.00     0.117 C 
ATOM      4  N   UNL     1       1.267  43.746  52.801  1.00  0.00    -0.369 N 
ATOM      5  C   UNL     1       2.262  42.676  52.968  1.00  0.00     0.117 C 
ATOM      6  C   UNL     1       3.052  42.424  51.673  1.00  0.00     0.035 C 
ENDROOT
BRANCH   1   7
ATOM      7  C   UNL     1       4.672  44.352  51.596  1.00  0.00     0.223 C 
ATOM      8  N   UNL     1       4.558  45.524  52.428  1.00  0.00    -0.348 N 
ATOM      9  O   UNL     1       5.792  43.797  51.429  1.00  0.00    -0.275 OA
ATOM     10  H   UNL     1       3.619  45.971  52.474  1.00  0.00     0.164 HD
BRANCH   8  11
ATOM     11  C   UNL     1       5.652  46.058  53.270  1.00  0.00     0.065 C 
ATOM     12  C   UNL     1       5.151  47.101  54.291  1.00  0.00     0.140 C 
ATOM     13  O   UNL     1       4.584  46.406  55.376  1.00  0.00    -0.376 OA
ATOM     14  C   UNL     1       5.204  45.139  55.419  1.00  0.00     0.163 C 
ATOM     15  C   UNL     1       6.139  44.987  54.227  1.00  0.00     0.059 C 
ATOM     16  C   UNL     1       4.163  48.143  53.752  1.00  0.00     0.041 C 
ATOM     17  C   UNL     1       6.787  46.633  52.395  1.00  0.00     0.037 C 
ENDBRANCH   8  11
ENDBRANCH   1   7
BRANCH   4  18
ATOM     18  C   UNL     1       0.589  44.275  53.958  1.00  0.00     0.073 A 
ATOM     19  C   UNL     1       1.273  45.114  54.855  1.00  0.00     0.030 A 
ATOM     20  C   UNL     1      -0.770  43.986  54.195  1.00  0.00     0.147 A 
ATOM     21  C   UNL     1       0.619  45.646  55.969  1.00  0.00     0.022 A 
ATOM     22  C   UNL     1      -1.422  44.524  55.309  1.00  0.00     0.061 A 
ATOM     23  C   UNL     1      -0.730  45.353  56.199  1.00  0.00     0.055 A 
ATOM     24  C   UNL     1      -1.404  45.906  57.343  1.00  0.00     0.099 C 
ATOM     25  N   UNL     1      -1.947  46.351  58.264  1.00  0.00    -0.192 NA
ATOM     26  F   UNL     1      -1.480  43.220  53.329  1.00  0.00    -0.205 F 
ENDBRANCH   4  18
TORSDOF 3
ENDMDL
MODEL 5
REMARK VINA RESULT:    -7.659      2.998      7.829
REMARK INTER + INTRA:          -8.912
REMARK INTER:                  -8.576
REMARK INTRA:                  -0.336
REMARK UNBOUND:                 0.090
REMARK SMILES C[C@H]1OCC[C@@]1(C)NC(=O)C1CCN(c2ccc(C#N)cc2F)CC1
REMARK SMILES IDX 11 1 12 2 13 3 14 4 24 5 25 6 9 7 8 8 10 9 6 11 2 12 3 13
REMARK SMILES IDX 4 14 5 15 1 16 7 17 15 18 16 19 22 20 17 21 21 22 18 23
REMARK SMILES IDX 19 24 20 25 23 26
REMARK H PARENT 8 10
ROOT
ATOM      1  C   UNL     1       0.152  43.008  52.624  1.00  0.00     0.082 C 
ATOM      2  C   UNL     1       1.418  42.585  53.425  1.00  0.00     0.035 C 
ATOM      3  C   UNL     1       2.711  42.699  52.611  1.00  0.00     0.117 C 
ATOM      4  N   UNL     1       2.747  43.987  51.907  1.00  0.00    -0.369 N 
ATOM      5  C   UNL     1       1.636  44.356  51.017  1.00  0.00     0.117 C 
ATOM      6  C   UNL     1       0.448  43.390  51.155  1.00  0.00     0.035 C 
ENDROOT
BRANCH   1   7
ATOM      7  C   UNL     1      -0.630  44.102  53.319  1.00  0.00     0.223 C 
ATOM      8  N   UNL     1      -1.232  43.881  54.611  1.00  0.00    -0.348 N 
ATOM      9  O   UNL     1      -0.709  45.231  52.765  1.00  0.00    -0.275 OA
ATOM     10  H   UNL     1      -1.187  42.911  54.984  1.00  0.00     0.164 HD
BRANCH   8  11
ATOM     11  C   UNL     1      -1.814  44.951  55.452  1.00  0.00     0.065 C 
ATOM     12  C   UNL     1      -2.144  44.461  56.878  1.00  0.00     0.140 C 
ATOM     13  O   UNL     1      -0.947  44.456  57.620  1.00  0.00    -0.376 OA
ATOM     14  C   UNL     1      -0.097  45.417  57.033  1.00  0.00     0.163 C 
ATOM     15  C   UNL     1      -0.755  45.984  55.782  1.00  0.00     0.059 C 
ATOM     16  C   UNL     1      -2.835  43.095  56.973  1.00  0.00     0.041 C 
ATOM     17  C   UNL     1      -3.056  45.569  54.773  1.00  0.00     0.037 C 
ENDBRANCH   8  11
ENDBRANCH   1   7
BRANCH   4  18
ATOM     18  C   UNL     1       3.853  44.895  52.081  1.00  0.00     0.073 A 
ATOM     19  C   UNL     1       5.006  44.763  51.288  1.00  0.00     0.030 A 
ATOM     20  C   UNL     1       3.789  45.940  53.024  1.00  0.00     0.147 A 
ATOM     21  C   UNL     1       6.075  45.649  51.437  1.00  0.00     0.022 A 
ATOM     22  C   UNL     1       4.860  46.828  53.167  1.00  0.00     0.061 A 
ATOM     23  C   UNL     1       6.005  46.683  52.377  1.00  0.00     0.055 A 
ATOM     24  C   UNL     1       7.105  47.600  52.526  1.00  0.00     0.099 C 
ATOM     25  N   UNL     1       7.990  48.337  52.646  1.00  0.00    -0.192 NA
ATOM     26  F   UNL     1       2.676  46.131  53.776  1.00  0.00    -0.205 F 
ENDBRANCH   4  18
TORSDOF 3
ENDMDL
