MODEL 1
REMARK VINA RESULT:    -8.861      0.000      0.000
REMARK INTER + INTRA:         -10.796
REMARK INTER:                 -10.674
REMARK INTRA:                  -0.122
REMARK UNBOUND:                -0.122
REMARK SMILES Cc1nc(N2CC[C@H](CO)C2)c2cnn(-c3ccccc3)c2n1
REMARK SMILES IDX 5 1 6 2 7 3 8 4 11 5 4 6 2 7 3 8 23 9 22 10 12 11 15 12
REMARK SMILES IDX 13 13 14 14 1 15 16 16 17 17 21 18 18 19 20 20 19 21 9 22
REMARK SMILES IDX 10 23
REMARK H PARENT 10 24
ROOT
ATOM      1  N   UNL     1       1.709  44.901  54.268  1.00  0.00    -0.356 N 
ATOM      2  C   UNL     1       0.479  44.572  53.562  1.00  0.00     0.118 C 
ATOM      3  C   UNL     1      -0.654  44.917  54.519  1.00  0.00     0.029 C 
ATOM      4  C   UNL     1      -0.011  44.948  55.906  1.00  0.00     0.036 C 
ATOM      5  C   UNL     1       1.465  45.263  55.654  1.00  0.00     0.124 C 
ENDROOT
BRANCH   1   6
ATOM      6  C   UNL     1       3.003  44.774  53.642  1.00  0.00     0.143 A 
ATOM      7  C   UNL     1       4.419  43.585  52.114  1.00  0.00     0.130 A 
ATOM      8  N   UNL     1       3.212  43.773  52.733  1.00  0.00    -0.215 NA
ATOM      9  N   UNL     1       5.460  44.428  52.369  1.00  0.00    -0.213 NA
ATOM     10  C   UNL     1       5.270  45.440  53.248  1.00  0.00     0.168 A 
ATOM     11  C   UNL     1       4.086  45.630  53.899  1.00  0.00     0.082 A 
ATOM     12  N   UNL     1       6.174  46.355  53.645  1.00  0.00    -0.215 N 
ATOM     13  C   UNL     1       4.314  46.723  54.721  1.00  0.00     0.150 A 
ATOM     14  N   UNL     1       5.593  47.136  54.549  1.00  0.00    -0.174 NA
ATOM     15  C   UNL     1       4.578  42.490  51.113  1.00  0.00     0.090 C 
BRANCH  12  16
ATOM     16  C   UNL     1       7.544  46.500  53.226  1.00  0.00     0.067 A 
ATOM     17  C   UNL     1       7.925  46.295  51.887  1.00  0.00     0.028 A 
ATOM     18  C   UNL     1       8.522  46.887  54.161  1.00  0.00     0.028 A 
ATOM     19  C   UNL     1       9.260  46.451  51.500  1.00  0.00     0.002 A 
ATOM     20  C   UNL     1       9.856  47.040  53.769  1.00  0.00     0.002 A 
ATOM     21  C   UNL     1      10.225  46.820  52.440  1.00  0.00     0.000 A 
ENDBRANCH  12  16
ENDBRANCH   1   6
BRANCH   4  22
ATOM     22  C   UNL     1      -0.690  45.953  56.847  1.00  0.00     0.161 C 
BRANCH  22  23
ATOM     23  O   UNL     1       0.128  46.186  57.960  1.00  0.00    -0.396 OA
ATOM     24  H   UNL     1      -0.235  46.998  58.402  1.00  0.00     0.210 HD
ENDBRANCH  22  23
ENDBRANCH   4  22
TORSDOF 4
ENDMDL
MODEL 2
REMARK VINA RESULT:    -8.845      1.938      2.086
REMARK INTER + INTRA:         -10.777
REMARK INTER:                 -10.348
REMARK INTRA:                  -0.428
REMARK UNBOUND:                -0.122
REMARK SMILES Cc1nc(N2CC[C@H](CO)C2)c2cnn(-c3ccccc3)c2n1
REMARK SMILES IDX 5 1 6 2 7 3 8 4 11 5 4 6 2 7 3 8 23 9 22 10 12 11 15 12
REMARK SMILES IDX 13 13 14 14 1 15 16 16 17 17 21 18 18 19 20 20 19 21 9 22
REMARK SMILES IDX 10 23
REMARK H PARENT 10 24
ROOT
ATOM      1  N   UNL     1       1.474  44.239  52.835  1.00  0.00    -0.356 N 
ATOM      2  C   UNL     1       0.915  43.238  53.731  1.00  0.00     0.118 C 
ATOM      3  C   UNL     1      -0.587  43.485  53.746  1.00  0.00     0.029 C 
ATOM      4  C   UNL     1      -0.759  44.926  53.262  1.00  0.00     0.036 C 
ATOM      5  C   UNL     1       0.480  45.212  52.412  1.00  0.00     0.124 C 
ENDROOT
BRANCH   1   6
ATOM      6  C   UNL     1       2.879  44.270  52.510  1.00  0.00     0.143 A 
ATOM      7  C   UNL     1       4.728  43.260  51.363  1.00  0.00     0.130 A 
ATOM      8  N   UNL     1       3.401  43.300  51.698  1.00  0.00    -0.215 NA
ATOM      9  N   UNL     1       5.580  44.225  51.814  1.00  0.00    -0.213 NA
ATOM     10  C   UNL     1       5.082  45.208  52.601  1.00  0.00     0.168 A 
ATOM     11  C   UNL     1       3.769  45.253  52.973  1.00  0.00     0.082 A 
ATOM     12  N   UNL     1       5.761  46.228  53.158  1.00  0.00    -0.215 N 
ATOM     13  C   UNL     1       3.679  46.368  53.792  1.00  0.00     0.150 A 
ATOM     14  N   UNL     1       4.906  46.933  53.891  1.00  0.00    -0.174 NA
ATOM     15  C   UNL     1       5.232  42.190  50.453  1.00  0.00     0.090 C 
BRANCH  12  16
ATOM     16  C   UNL     1       7.162  46.538  53.045  1.00  0.00     0.067 A 
ATOM     17  C   UNL     1       7.796  46.610  51.790  1.00  0.00     0.028 A 
ATOM     18  C   UNL     1       7.913  46.811  54.203  1.00  0.00     0.028 A 
ATOM     19  C   UNL     1       9.156  46.924  51.702  1.00  0.00     0.002 A 
ATOM     20  C   UNL     1       9.273  47.122  54.110  1.00  0.00     0.002 A 
ATOM     21  C   UNL     1       9.895  47.176  52.861  1.00  0.00     0.000 A 
ENDBRANCH  12  16
ENDBRANCH   1   6
BRANCH   4  22
ATOM     22  C   UNL     1      -2.075  45.136  52.498  1.00  0.00     0.161 C 
BRANCH  22  23
ATOM     23  O   UNL     1      -2.105  46.426  51.953  1.00  0.00    -0.396 OA
ATOM     24  H   UNL     1      -3.038  46.747  52.061  1.00  0.00     0.210 HD
ENDBRANCH  22  23
ENDBRANCH   4  22
TORSDOF 4
ENDMDL
MODEL 3
REMARK VINA RESULT:    -8.495      2.643      7.107
REMARK INTER + INTRA:         -10.356
REMARK INTER:                  -9.910
REMARK INTRA:                  -0.445
REMARK UNBOUND:                -0.122
REMARK SMILES Cc1nc(N2CC[C@H](CO)C2)c2cnn(-c3ccccc3)c2n1
REMARK SMILES IDX 5 1 6 2 7 3 8 4 11 5 4 6 2 7 3 8 23 9 22 10 12 11 15 12
REMARK SMILES IDX 13 13 14 14 1 15 16 16 17 17 21 18 18 19 20 20 19 21 9 22
REMARK SMILES IDX 10 23
REMARK H PARENT 10 24
ROOT
ATOM      1  N   UNL     1       7.230  46.061  52.542  1.00  0.00    -0.356 N 
ATOM      2  C   UNL     1       8.092  46.522  51.463  1.00  0.00     0.118 C 
ATOM      3  C   UNL     1       9.268  47.213  52.137  1.00  0.00     0.029 C 
ATOM      4  C   UNL     1       8.776  47.562  53.543  1.00  0.00     0.036 C 
ATOM      5  C   UNL     1       7.668  46.550  53.839  1.00  0.00     0.124 C 
ENDROOT
BRANCH   1   6
ATOM      6  C   UNL     1       6.038  45.289  52.288  1.00  0.00     0.143 A 
ATOM      7  C   UNL     1       5.016  43.431  51.165  1.00  0.00     0.130 A 
ATOM      8  N   UNL     1       6.110  44.199  51.463  1.00  0.00    -0.215 NA
ATOM      9  N   UNL     1       3.804  43.720  51.720  1.00  0.00    -0.213 NA
ATOM     10  C   UNL     1       3.713  44.780  52.557  1.00  0.00     0.168 A 
ATOM     11  C   UNL     1       4.783  45.577  52.845  1.00  0.00     0.082 A 
ATOM     12  N   UNL     1       2.609  45.234  53.180  1.00  0.00    -0.215 N 
ATOM     13  C   UNL     1       4.271  46.551  53.690  1.00  0.00     0.150 A 
ATOM     14  N   UNL     1       2.948  46.320  53.867  1.00  0.00    -0.174 NA
ATOM     15  C   UNL     1       5.163  42.240  50.279  1.00  0.00     0.090 C 
BRANCH  12  16
ATOM     16  C   UNL     1       1.271  44.705  53.130  1.00  0.00     0.067 A 
ATOM     17  C   UNL     1       0.275  45.308  52.340  1.00  0.00     0.028 A 
ATOM     18  C   UNL     1       0.953  43.542  53.855  1.00  0.00     0.028 A 
ATOM     19  C   UNL     1      -1.015  44.772  52.298  1.00  0.00     0.002 A 
ATOM     20  C   UNL     1      -0.339  43.010  53.811  1.00  0.00     0.002 A 
ATOM     21  C   UNL     1      -1.324  43.626  53.035  1.00  0.00     0.000 A 
ENDBRANCH  12  16
ENDBRANCH   1   6
BRANCH   4  22
ATOM     22  C   UNL     1       9.905  47.541  54.583  1.00  0.00     0.161 C 
BRANCH  22  23
ATOM     23  O   UNL     1       9.545  48.325  55.687  1.00  0.00    -0.396 OA
ATOM     24  H   UNL     1       9.212  47.692  56.376  1.00  0.00     0.210 HD
ENDBRANCH  22  23
ENDBRANCH   4  22
TORSDOF 4
ENDMDL
MODEL 4
REMARK VINA RESULT:    -7.568      3.458      7.648
REMARK INTER + INTRA:          -9.238
REMARK INTER:                  -9.396
REMARK INTRA:                   0.158
REMARK UNBOUND:                -0.122
REMARK SMILES Cc1nc(N2CC[C@H](CO)C2)c2cnn(-c3ccccc3)c2n1
REMARK SMILES IDX 5 1 6 2 7 3 8 4 11 5 4 6 2 7 3 8 23 9 22 10 12 11 15 12
REMARK SMILES IDX 13 13 14 14 1 15 16 16 17 17 21 18 18 19 20 20 19 21 9 22
REMARK SMILES IDX 10 23
REMARK H PARENT 10 24
ROOT
ATOM      1  N   UNL     1       5.282  43.506  51.058  1.00  0.00    -0.356 N 
ATOM      2  C   UNL     1       6.493  43.984  50.406  1.00  0.00     0.118 C 
ATOM      3  C   UNL     1       6.719  43.058  49.219  1.00  0.00     0.029 C 
ATOM      4  C   UNL     1       5.920  41.794  49.541  1.00  0.00     0.036 C 
ATOM      5  C   UNL     1       4.813  42.252  50.492  1.00  0.00     0.124 C 
ENDROOT
BRANCH   1   6
ATOM      6  C   UNL     1       4.709  44.189  52.192  1.00  0.00     0.143 A 
ATOM      7  C   UNL     1       4.976  45.803  53.947  1.00  0.00     0.130 A 
ATOM      8  N   UNL     1       5.451  45.129  52.853  1.00  0.00    -0.215 NA
ATOM      9  N   UNL     1       3.709  45.572  54.398  1.00  0.00    -0.213 NA
ATOM     10  C   UNL     1       2.948  44.662  53.746  1.00  0.00     0.168 A 
ATOM     11  C   UNL     1       3.410  43.957  52.673  1.00  0.00     0.082 A 
ATOM     12  N   UNL     1       1.693  44.283  54.050  1.00  0.00    -0.215 N 
ATOM     13  C   UNL     1       2.359  43.121  52.329  1.00  0.00     0.150 A 
ATOM     14  N   UNL     1       1.334  43.336  53.189  1.00  0.00    -0.174 NA
ATOM     15  C   UNL     1       5.824  46.835  54.610  1.00  0.00     0.090 C 
BRANCH  12  16
ATOM     16  C   UNL     1       0.848  44.755  55.116  1.00  0.00     0.067 A 
ATOM     17  C   UNL     1       1.391  45.356  56.267  1.00  0.00     0.028 A 
ATOM     18  C   UNL     1      -0.550  44.649  54.998  1.00  0.00     0.028 A 
ATOM     19  C   UNL     1       0.552  45.817  57.286  1.00  0.00     0.002 A 
ATOM     20  C   UNL     1      -1.385  45.110  56.021  1.00  0.00     0.002 A 
ATOM     21  C   UNL     1      -0.834  45.691  57.166  1.00  0.00     0.000 A 
ENDBRANCH  12  16
ENDBRANCH   1   6
BRANCH   4  22
ATOM     22  C   UNL     1       5.383  41.101  48.280  1.00  0.00     0.161 C 
BRANCH  22  23
ATOM     23  O   UNL     1       6.107  41.528  47.160  1.00  0.00    -0.396 OA
ATOM     24  H   UNL     1       6.009  40.812  46.480  1.00  0.00     0.210 HD
ENDBRANCH  22  23
ENDBRANCH   4  22
TORSDOF 4
ENDMDL
MODEL 5
REMARK VINA RESULT:    -7.435      2.757      7.488
REMARK INTER + INTRA:          -9.078
REMARK INTER:                  -8.551
REMARK INTRA:                  -0.528
REMARK UNBOUND:                -0.122
REMARK SMILES Cc1nc(N2CC[C@H](CO)C2)c2cnn(-c3ccccc3)c2n1
REMARK SMILES IDX 5 1 6 2 7 3 8 4 11 5 4 6 2 7 3 8 23 9 22 10 12 11 15 12
REMARK SMILES IDX 13 13 14 14 1 15 16 16 17 17 21 18 18 19 20 20 19 21 9 22
REMARK SMILES IDX 10 23
REMARK H PARENT 10 24
ROOT
ATOM      1  N   UNL     1       6.022  45.400  52.489  1.00  0.00    -0.356 N 
ATOM      2  C   UNL     1       6.549  45.506  53.842  1.00  0.00     0.118 C 
ATOM      3  C   UNL     1       7.729  46.463  53.754  1.00  0.00     0.029 C 
ATOM      4  C   UNL     1       8.136  46.462  52.280  1.00  0.00     0.036 C 
ATOM      5  C   UNL     1       6.870  46.070  51.517  1.00  0.00     0.124 C 
ENDROOT
BRANCH   1   6
ATOM      6  C   UNL     1       4.841  44.627  52.191  1.00  0.00     0.143 A 
ATOM      7  C   UNL     1       3.895  42.632  51.251  1.00  0.00     0.130 A 
ATOM      8  N   UNL     1       4.974  43.410  51.578  1.00  0.00    -0.215 NA
ATOM      9  N   UNL     1       2.632  43.043  51.561  1.00  0.00    -0.213 NA
ATOM     10  C   UNL     1       2.478  44.234  52.188  1.00  0.00     0.168 A 
ATOM     11  C   UNL     1       3.534  45.040  52.497  1.00  0.00     0.082 A 
ATOM     12  N   UNL     1       1.321  44.818  52.553  1.00  0.00    -0.215 N 
ATOM     13  C   UNL     1       2.958  46.158  53.081  1.00  0.00     0.150 A 
ATOM     14  N   UNL     1       1.613  45.996  53.093  1.00  0.00    -0.174 NA
ATOM     15  C   UNL     1       4.106  41.303  50.607  1.00  0.00     0.090 C 
BRANCH  12  16
ATOM     16  C   UNL     1      -0.022  44.323  52.392  1.00  0.00     0.067 A 
ATOM     17  C   UNL     1      -0.860  44.107  53.502  1.00  0.00     0.028 A 
ATOM     18  C   UNL     1      -0.526  44.082  51.101  1.00  0.00     0.028 A 
ATOM     19  C   UNL     1      -2.164  43.637  53.322  1.00  0.00     0.002 A 
ATOM     20  C   UNL     1      -1.831  43.610  50.926  1.00  0.00     0.002 A 
ATOM     21  C   UNL     1      -2.648  43.384  52.036  1.00  0.00     0.000 A 
ENDBRANCH  12  16
ENDBRANCH   1   6
BRANCH   4  22
ATOM     22  C   UNL     1       8.718  47.810  51.830  1.00  0.00     0.161 C 
BRANCH  22  23
ATOM     23  O   UNL     1       7.965  48.856  52.378  1.00  0.00    -0.396 OA
ATOM     24  H   UNL     1       7.919  49.557  51.676  1.00  0.00     0.210 HD
ENDBRANCH  22  23
ENDBRANCH   4  22
TORSDOF 4
ENDMDL
