ligand_38_conformer_1_docked
     RDKit          3D

 52 57  0  0  0  0  0  0  0  0999 V2000
   -1.8620   43.8080   56.3070 C   0  0  0  0  0  0  0  0  0  0  0  0
   -1.1620   44.3530   55.1510 N   0  0  0  0  0  0  0  0  0  0  0  0
   -1.3860   43.9810   53.7800 C   0  0  0  0  0  0  0  0  0  0  0  0
   -2.4290   43.4170   53.3560 O   0  0  0  0  0  0  0  0  0  0  0  0
   -0.2070   44.3120   52.9840 C   0  0  0  0  0  0  0  0  0  0  0  0
    0.1230   44.1720   51.6370 C   0  0  0  0  0  0  0  0  0  0  0  0
    1.4140   44.5820   51.2320 C   0  0  0  0  0  0  0  0  0  0  0  0
    2.3410   45.1020   52.1710 C   0  0  0  0  0  0  0  0  0  0  0  0
    1.9780   45.2220   53.5350 C   0  0  0  0  0  0  0  0  0  0  0  0
    2.8020   45.6960   54.5870 C   0  0  0  0  0  0  0  0  0  0  0  0
    4.4490   46.2630   54.2820 S   0  0  0  0  0  0  0  0  0  0  0  0
    4.5310   47.7510   54.4970 O   0  0  0  0  0  0  0  0  0  0  0  0
    5.3750   45.5880   55.2560 O   0  0  0  0  0  0  0  0  0  0  0  0
    4.9310   45.8800   52.6440 N   0  0  0  0  0  0  0  0  0  0  0  0
    5.7080   46.9930   52.0490 C   0  0  0  0  0  0  0  0  0  0  0  0
    7.1780   46.9700   52.4150 C   0  0  0  0  0  0  0  0  0  0  0  0
    7.6990   47.9430   53.2850 C   0  0  0  0  0  0  0  0  0  0  0  0
    9.0600   47.9580   53.5930 C   0  0  0  0  0  0  0  0  0  0  0  0
    9.9150   47.0070   53.0350 C   0  0  0  0  0  0  0  0  0  0  0  0
    9.4130   46.0320   52.1710 C   0  0  0  0  0  0  0  0  0  0  0  0
    8.0420   45.9980   51.8560 C   0  0  0  0  0  0  0  0  0  0  0  0
    7.5010   44.9280   50.9750 C   0  0  0  0  0  0  0  0  0  0  0  0
    8.1570   44.5970   49.7760 C   0  0  0  0  0  0  0  0  0  0  0  0
    7.6120   43.6420   48.9130 C   0  0  0  0  0  0  0  0  0  0  0  0
    6.4120   43.0080   49.2350 C   0  0  0  0  0  0  0  0  0  0  0  0
    5.7530   43.3180   50.4260 C   0  0  0  0  0  0  0  0  0  0  0  0
    6.2900   44.2710   51.3090 C   0  0  0  0  0  0  0  0  0  0  0  0
    5.6000   44.5610   52.6250 C   0  0  0  0  0  0  0  0  0  0  0  0
    2.2840   45.7300   55.9140 C   0  0  0  0  0  0  0  0  0  0  0  0
    0.9680   45.2980   56.1980 C   0  0  0  0  0  0  0  0  0  0  0  0
    0.1830   44.8490   55.1380 C   0  0  0  0  0  0  0  0  0  0  0  0
    0.6930   44.8230   53.8700 C   0  0  0  0  0  0  0  0  0  0  0  0
   -1.3890   44.1763   57.2293 H   0  0  0  0  0  0  0  0  0  0  0  0
   -2.9145   44.1268   56.2822 H   0  0  0  0  0  0  0  0  0  0  0  0
   -1.8110   42.7095   56.2822 H   0  0  0  0  0  0  0  0  0  0  0  0
   -0.5955   43.7572   50.9147 H   0  0  0  0  0  0  0  0  0  0  0  0
    1.7034   44.4965   50.1742 H   0  0  0  0  0  0  0  0  0  0  0  0
    3.3429   45.4125   51.8398 H   0  0  0  0  0  0  0  0  0  0  0  0
    5.6212   46.9314   50.9542 H   0  0  0  0  0  0  0  0  0  0  0  0
    5.2904   47.9284   52.4498 H   0  0  0  0  0  0  0  0  0  0  0  0
    7.0302   48.6970   53.7257 H   0  0  0  0  0  0  0  0  0  0  0  0
    9.4596   48.7211   54.2771 H   0  0  0  0  0  0  0  0  0  0  0  0
   10.9880   47.0255   53.2766 H   0  0  0  0  0  0  0  0  0  0  0  0
   10.0931   45.2861   51.7340 H   0  0  0  0  0  0  0  0  0  0  0  0
    9.1041   45.0923   49.5159 H   0  0  0  0  0  0  0  0  0  0  0  0
    8.1312   43.3896   47.9767 H   0  0  0  0  0  0  0  0  0  0  0  0
    5.9840   42.2622   48.5490 H   0  0  0  0  0  0  0  0  0  0  0  0
    4.8078   42.8135   50.6750 H   0  0  0  0  0  0  0  0  0  0  0  0
    4.8450   43.7816   52.8050 H   0  0  0  0  0  0  0  0  0  0  0  0
    6.3722   44.5705   53.4083 H   0  0  0  0  0  0  0  0  0  0  0  0
    2.9196   46.0991   56.7324 H   0  0  0  0  0  0  0  0  0  0  0  0
    0.5755   45.3159   57.2254 H   0  0  0  0  0  0  0  0  0  0  0  0
  1  2  1  0
  2  3  1  0
  3  4  2  0
  3  5  1  0
  5  6  2  0
  6  7  1  0
  7  8  2  0
  8  9  1  0
  9 10  2  0
 10 11  1  0
 11 12  2  0
 11 13  2  0
 11 14  1  0
 14 15  1  0
 15 16  1  0
 16 17  2  0
 17 18  1  0
 18 19  2  0
 19 20  1  0
 20 21  2  0
 21 22  1  0
 22 23  2  0
 23 24  1  0
 24 25  2  0
 25 26  1  0
 26 27  2  0
 27 28  1  0
 10 29  1  0
 29 30  2  0
 30 31  1  0
 31 32  2  0
 31  2  1  0
 32  5  1  0
 32  9  1  0
 28 14  1  0
 21 16  1  0
 27 22  1  0
  1 33  1  0
  1 34  1  0
  1 35  1  0
  6 36  1  0
  7 37  1  0
  8 38  1  0
 15 39  1  0
 15 40  1  0
 17 41  1  0
 18 42  1  0
 19 43  1  0
 20 44  1  0
 23 45  1  0
 24 46  1  0
 25 47  1  0
 26 48  1  0
 28 49  1  0
 28 50  1  0
 29 51  1  0
 30 52  1  0
M  END
>  <meeko>  (1) 
{"is_sidechain": [false], "free_energy": -11.888, "intermolecular_energy": -13.278, "internal_energy": -0.033}

$$$$
ligand_38_conformer_1_docked
     RDKit          3D

 52 57  0  0  0  0  0  0  0  0999 V2000
    9.3140   47.9270   54.7590 C   0  0  0  0  0  0  0  0  0  0  0  0
    8.8390   46.8960   53.8450 N   0  0  0  0  0  0  0  0  0  0  0  0
    9.4520   46.5320   52.5970 C   0  0  0  0  0  0  0  0  0  0  0  0
   10.6460   46.7870   52.2880 O   0  0  0  0  0  0  0  0  0  0  0  0
    8.4670   45.8760   51.7410 C   0  0  0  0  0  0  0  0  0  0  0  0
    8.5070   45.3360   50.4570 C   0  0  0  0  0  0  0  0  0  0  0  0
    7.3060   44.8090   49.9290 C   0  0  0  0  0  0  0  0  0  0  0  0
    6.1030   44.8460   50.6800 C   0  0  0  0  0  0  0  0  0  0  0  0
    6.0940   45.4110   51.9780 C   0  0  0  0  0  0  0  0  0  0  0  0
    4.9690   45.5420   52.8320 C   0  0  0  0  0  0  0  0  0  0  0  0
    3.3770   44.9360   52.3570 S   0  0  0  0  0  0  0  0  0  0  0  0
    3.0800   45.3280   50.9350 O   0  0  0  0  0  0  0  0  0  0  0  0
    3.3910   43.4350   52.4460 O   0  0  0  0  0  0  0  0  0  0  0  0
    2.1410   45.5810   53.4140 N   0  0  0  0  0  0  0  0  0  0  0  0
    0.9210   45.9270   52.6480 C   0  0  0  0  0  0  0  0  0  0  0  0
    0.0020   44.7470   52.4050 C   0  0  0  0  0  0  0  0  0  0  0  0
   -0.1300   44.2180   51.1100 C   0  0  0  0  0  0  0  0  0  0  0  0
   -1.0070   43.1590   50.8670 C   0  0  0  0  0  0  0  0  0  0  0  0
   -1.7630   42.6220   51.9090 C   0  0  0  0  0  0  0  0  0  0  0  0
   -1.6420   43.1360   53.2020 C   0  0  0  0  0  0  0  0  0  0  0  0
   -0.7570   44.1970   53.4650 C   0  0  0  0  0  0  0  0  0  0  0  0
   -0.5910   44.7090   54.8530 C   0  0  0  0  0  0  0  0  0  0  0  0
   -1.7190   44.9700   55.6520 C   0  0  0  0  0  0  0  0  0  0  0  0
   -1.5690   45.5180   56.9290 C   0  0  0  0  0  0  0  0  0  0  0  0
   -0.2970   45.8080   57.4230 C   0  0  0  0  0  0  0  0  0  0  0  0
    0.8330   45.5460   56.6460 C   0  0  0  0  0  0  0  0  0  0  0  0
    0.7010   44.9890   55.3630 C   0  0  0  0  0  0  0  0  0  0  0  0
    1.9340   44.6550   54.5490 C   0  0  0  0  0  0  0  0  0  0  0  0
    5.1320   46.1600   54.1050 C   0  0  0  0  0  0  0  0  0  0  0  0
    6.3910   46.6460   54.5290 C   0  0  0  0  0  0  0  0  0  0  0  0
    7.4760   46.4900   53.6690 C   0  0  0  0  0  0  0  0  0  0  0  0
    7.3050   45.8950   52.4510 C   0  0  0  0  0  0  0  0  0  0  0  0
    9.1613   47.5957   55.7967 H   0  0  0  0  0  0  0  0  0  0  0  0
   10.3853   48.1059   54.5851 H   0  0  0  0  0  0  0  0  0  0  0  0
    8.7539   48.8576   54.5851 H   0  0  0  0  0  0  0  0  0  0  0  0
    9.4401   45.3203   49.8747 H   0  0  0  0  0  0  0  0  0  0  0  0
    7.3044   44.3645   48.9228 H   0  0  0  0  0  0  0  0  0  0  0  0
    5.1761   44.4352   50.2532 H   0  0  0  0  0  0  0  0  0  0  0  0
    0.3638   46.6920   53.2085 H   0  0  0  0  0  0  0  0  0  0  0  0
    1.2505   46.2875   51.6623 H   0  0  0  0  0  0  0  0  0  0  0  0
    0.4605   44.6402   50.2835 H   0  0  0  0  0  0  0  0  0  0  0  0
   -1.1019   42.7472   49.8514 H   0  0  0  0  0  0  0  0  0  0  0  0
   -2.4565   41.7913   51.7118 H   0  0  0  0  0  0  0  0  0  0  0  0
   -2.2420   42.7088   54.0190 H   0  0  0  0  0  0  0  0  0  0  0  0
   -2.7248   44.7415   55.2696 H   0  0  0  0  0  0  0  0  0  0  0  0
   -2.4565   45.7212   57.5463 H   0  0  0  0  0  0  0  0  0  0  0  0
   -0.1841   46.2439   58.4266 H   0  0  0  0  0  0  0  0  0  0  0  0
    1.8333   45.7772   57.0410 H   0  0  0  0  0  0  0  0  0  0  0  0
    2.8137   44.7044   55.2076 H   0  0  0  0  0  0  0  0  0  0  0  0
    1.7919   43.6471   54.1319 H   0  0  0  0  0  0  0  0  0  0  0  0
    4.2624   46.2612   54.7710 H   0  0  0  0  0  0  0  0  0  0  0  0
    6.5098   47.1325   55.5084 H   0  0  0  0  0  0  0  0  0  0  0  0
  1  2  1  0
  2  3  1  0
  3  4  2  0
  3  5  1  0
  5  6  2  0
  6  7  1  0
  7  8  2  0
  8  9  1  0
  9 10  2  0
 10 11  1  0
 11 12  2  0
 11 13  2  0
 11 14  1  0
 14 15  1  0
 15 16  1  0
 16 17  2  0
 17 18  1  0
 18 19  2  0
 19 20  1  0
 20 21  2  0
 21 22  1  0
 22 23  2  0
 23 24  1  0
 24 25  2  0
 25 26  1  0
 26 27  2  0
 27 28  1  0
 10 29  1  0
 29 30  2  0
 30 31  1  0
 31 32  2  0
 31  2  1  0
 32  5  1  0
 32  9  1  0
 28 14  1  0
 21 16  1  0
 27 22  1  0
  1 33  1  0
  1 34  1  0
  1 35  1  0
  6 36  1  0
  7 37  1  0
  8 38  1  0
 15 39  1  0
 15 40  1  0
 17 41  1  0
 18 42  1  0
 19 43  1  0
 20 44  1  0
 23 45  1  0
 24 46  1  0
 25 47  1  0
 26 48  1  0
 28 49  1  0
 28 50  1  0
 29 51  1  0
 30 52  1  0
M  END
>  <meeko>  (2) 
{"is_sidechain": [false], "free_energy": -10.732, "intermolecular_energy": -11.611, "internal_energy": -0.409}

$$$$
ligand_38_conformer_1_docked
     RDKit          3D

 52 57  0  0  0  0  0  0  0  0999 V2000
    8.7530   44.2640   49.3010 C   0  0  0  0  0  0  0  0  0  0  0  0
    8.3230   45.2240   50.3090 N   0  0  0  0  0  0  0  0  0  0  0  0
    9.1680   45.8490   51.2890 C   0  0  0  0  0  0  0  0  0  0  0  0
   10.4210   45.9360   51.1980 O   0  0  0  0  0  0  0  0  0  0  0  0
    8.3570   46.3130   52.4110 C   0  0  0  0  0  0  0  0  0  0  0  0
    8.6430   46.9660   53.6090 C   0  0  0  0  0  0  0  0  0  0  0  0
    7.5680   47.2190   54.4910 C   0  0  0  0  0  0  0  0  0  0  0  0
    6.2490   46.8070   54.1690 C   0  0  0  0  0  0  0  0  0  0  0  0
    5.9940   46.1360   52.9480 C   0  0  0  0  0  0  0  0  0  0  0  0
    4.7390   45.6440   52.5050 C   0  0  0  0  0  0  0  0  0  0  0  0
    3.2710   45.8690   53.4630 S   0  0  0  0  0  0  0  0  0  0  0  0
    3.5890   45.7550   54.9290 O   0  0  0  0  0  0  0  0  0  0  0  0
    2.7330   47.2480   53.1970 O   0  0  0  0  0  0  0  0  0  0  0  0
    2.0710   44.6720   53.0280 N   0  0  0  0  0  0  0  0  0  0  0  0
    1.6460   43.8960   54.2170 C   0  0  0  0  0  0  0  0  0  0  0  0
    0.5680   44.5800   55.0330 C   0  0  0  0  0  0  0  0  0  0  0  0
    0.8760   45.1030   56.3010 C   0  0  0  0  0  0  0  0  0  0  0  0
   -0.1200   45.6960   57.0800 C   0  0  0  0  0  0  0  0  0  0  0  0
   -1.4300   45.7690   56.6060 C   0  0  0  0  0  0  0  0  0  0  0  0
   -1.7510   45.2550   55.3480 C   0  0  0  0  0  0  0  0  0  0  0  0
   -0.7590   44.6620   54.5470 C   0  0  0  0  0  0  0  0  0  0  0  0
   -1.0920   44.1610   53.1860 C   0  0  0  0  0  0  0  0  0  0  0  0
   -2.2410   43.3760   52.9810 C   0  0  0  0  0  0  0  0  0  0  0  0
   -2.5180   42.8450   51.7180 C   0  0  0  0  0  0  0  0  0  0  0  0
   -1.6580   43.0930   50.6490 C   0  0  0  0  0  0  0  0  0  0  0  0
   -0.5190   43.8780   50.8330 C   0  0  0  0  0  0  0  0  0  0  0  0
   -0.2280   44.4250   52.0940 C   0  0  0  0  0  0  0  0  0  0  0  0
    0.9780   45.3230   52.2730 C   0  0  0  0  0  0  0  0  0  0  0  0
    4.6630   44.9680   51.2530 C   0  0  0  0  0  0  0  0  0  0  0  0
    5.8110   44.7790   50.4500 C   0  0  0  0  0  0  0  0  0  0  0  0
    7.0240   45.2860   50.9120 C   0  0  0  0  0  0  0  0  0  0  0  0
    7.0830   45.9330   52.1150 C   0  0  0  0  0  0  0  0  0  0  0  0
    9.1545   43.3675   49.7961 H   0  0  0  0  0  0  0  0  0  0  0  0
    7.8949   43.9827   48.6729 H   0  0  0  0  0  0  0  0  0  0  0  0
    9.5342   44.7170   48.6729 H   0  0  0  0  0  0  0  0  0  0  0  0
    9.6691   47.2735   53.8590 H   0  0  0  0  0  0  0  0  0  0  0  0
    7.7565   47.7424   55.4400 H   0  0  0  0  0  0  0  0  0  0  0  0
    5.4240   47.0088   54.8680 H   0  0  0  0  0  0  0  0  0  0  0  0
    1.2610   42.9229   53.8780 H   0  0  0  0  0  0  0  0  0  0  0  0
    2.5271   43.7932   54.8674 H   0  0  0  0  0  0  0  0  0  0  0  0
    1.9065   45.0449   56.6815 H   0  0  0  0  0  0  0  0  0  0  0  0
    0.1291   46.1065   58.0697 H   0  0  0  0  0  0  0  0  0  0  0  0
   -2.2122   46.2327   57.2249 H   0  0  0  0  0  0  0  0  0  0  0  0
   -2.7864   45.3143   54.9813 H   0  0  0  0  0  0  0  0  0  0  0  0
   -2.9254   43.1789   53.8193 H   0  0  0  0  0  0  0  0  0  0  0  0
   -3.4172   42.2296   51.5670 H   0  0  0  0  0  0  0  0  0  0  0  0
   -1.8778   42.6689   49.6582 H   0  0  0  0  0  0  0  0  0  0  0  0
    0.1553   44.0697   49.9853 H   0  0  0  0  0  0  0  0  0  0  0  0
    1.3567   45.6050   51.2795 H   0  0  0  0  0  0  0  0  0  0  0  0
    0.6539   46.2012   52.8508 H   0  0  0  0  0  0  0  0  0  0  0  0
    3.6922   44.5858   50.9045 H   0  0  0  0  0  0  0  0  0  0  0  0
    5.7486   44.2475   49.4890 H   0  0  0  0  0  0  0  0  0  0  0  0
  1  2  1  0
  2  3  1  0
  3  4  2  0
  3  5  1  0
  5  6  2  0
  6  7  1  0
  7  8  2  0
  8  9  1  0
  9 10  2  0
 10 11  1  0
 11 12  2  0
 11 13  2  0
 11 14  1  0
 14 15  1  0
 15 16  1  0
 16 17  2  0
 17 18  1  0
 18 19  2  0
 19 20  1  0
 20 21  2  0
 21 22  1  0
 22 23  2  0
 23 24  1  0
 24 25  2  0
 25 26  1  0
 26 27  2  0
 27 28  1  0
 10 29  1  0
 29 30  2  0
 30 31  1  0
 31 32  2  0
 31  2  1  0
 32  5  1  0
 32  9  1  0
 28 14  1  0
 21 16  1  0
 27 22  1  0
  1 33  1  0
  1 34  1  0
  1 35  1  0
  6 36  1  0
  7 37  1  0
  8 38  1  0
 15 39  1  0
 15 40  1  0
 17 41  1  0
 18 42  1  0
 19 43  1  0
 20 44  1  0
 23 45  1  0
 24 46  1  0
 25 47  1  0
 26 48  1  0
 28 49  1  0
 28 50  1  0
 29 51  1  0
 30 52  1  0
M  END
>  <meeko>  (3) 
{"is_sidechain": [false], "free_energy": -10.56, "intermolecular_energy": -11.805, "internal_energy": -0.023}

$$$$
ligand_38_conformer_1_docked
     RDKit          3D

 52 57  0  0  0  0  0  0  0  0999 V2000
    6.3790   41.4810   49.1690 C   0  0  0  0  0  0  0  0  0  0  0  0
    6.1850   42.8480   49.6350 N   0  0  0  0  0  0  0  0  0  0  0  0
    7.2000   43.8640   49.7060 C   0  0  0  0  0  0  0  0  0  0  0  0
    8.2820   43.8360   49.0630 O   0  0  0  0  0  0  0  0  0  0  0  0
    6.8010   44.8880   50.6670 C   0  0  0  0  0  0  0  0  0  0  0  0
    7.3860   46.0670   51.1260 C   0  0  0  0  0  0  0  0  0  0  0  0
    6.6980   46.7970   52.1210 C   0  0  0  0  0  0  0  0  0  0  0  0
    5.4630   46.3330   52.6420 C   0  0  0  0  0  0  0  0  0  0  0  0
    4.9000   45.1250   52.1620 C   0  0  0  0  0  0  0  0  0  0  0  0
    3.6920   44.5260   52.6030 C   0  0  0  0  0  0  0  0  0  0  0  0
    2.6830   45.2890   53.8370 S   0  0  0  0  0  0  0  0  0  0  0  0
    3.3940   45.2820   55.1630 O   0  0  0  0  0  0  0  0  0  0  0  0
    2.4350   46.7170   53.4360 O   0  0  0  0  0  0  0  0  0  0  0  0
    1.1580   44.4430   53.9840 N   0  0  0  0  0  0  0  0  0  0  0  0
    0.9030   44.0580   55.3920 C   0  0  0  0  0  0  0  0  0  0  0  0
    0.2900   45.1670   56.2230 C   0  0  0  0  0  0  0  0  0  0  0  0
    1.0520   45.7960   57.2230 C   0  0  0  0  0  0  0  0  0  0  0  0
    0.4830   46.7890   58.0230 C   0  0  0  0  0  0  0  0  0  0  0  0
   -0.8490   47.1590   57.8390 C   0  0  0  0  0  0  0  0  0  0  0  0
   -1.6190   46.5440   56.8490 C   0  0  0  0  0  0  0  0  0  0  0  0
   -1.0590   45.5490   56.0290 C   0  0  0  0  0  0  0  0  0  0  0  0
   -1.8650   44.9310   54.9410 C   0  0  0  0  0  0  0  0  0  0  0  0
   -3.1800   44.4980   55.1910 C   0  0  0  0  0  0  0  0  0  0  0  0
   -3.9140   43.8530   54.1920 C   0  0  0  0  0  0  0  0  0  0  0  0
   -3.3490   43.6360   52.9350 C   0  0  0  0  0  0  0  0  0  0  0  0
   -2.0490   44.0680   52.6680 C   0  0  0  0  0  0  0  0  0  0  0  0
   -1.2990   44.7240   53.6590 C   0  0  0  0  0  0  0  0  0  0  0  0
    0.0900   45.2400   53.3440 C   0  0  0  0  0  0  0  0  0  0  0  0
    3.2800   43.2900   52.0260 C   0  0  0  0  0  0  0  0  0  0  0  0
    4.0520   42.6530   51.0270 C   0  0  0  0  0  0  0  0  0  0  0  0
    5.2270   43.2770   50.6100 C   0  0  0  0  0  0  0  0  0  0  0  0
    5.6090   44.4630   51.1720 C   0  0  0  0  0  0  0  0  0  0  0  0
    6.4744   40.8087   50.0344 H   0  0  0  0  0  0  0  0  0  0  0  0
    5.5153   41.1750   48.5604 H   0  0  0  0  0  0  0  0  0  0  0  0
    7.2938   41.4274   48.5604 H   0  0  0  0  0  0  0  0  0  0  0  0
    8.3497   46.4169   50.7275 H   0  0  0  0  0  0  0  0  0  0  0  0
    7.1260   47.7381   52.4968 H   0  0  0  0  0  0  0  0  0  0  0  0
    4.9422   46.9115   53.4192 H   0  0  0  0  0  0  0  0  0  0  0  0
    0.2165   43.1985   55.3986 H   0  0  0  0  0  0  0  0  0  0  0  0
    1.8776   43.8187   55.8424 H   0  0  0  0  0  0  0  0  0  0  0  0
    2.1016   45.5045   57.3760 H   0  0  0  0  0  0  0  0  0  0  0  0
    1.0867   47.2805   58.8001 H   0  0  0  0  0  0  0  0  0  0  0  0
   -1.2947   47.9376   58.4755 H   0  0  0  0  0  0  0  0  0  0  0  0
   -2.6693   46.8399   56.7103 H   0  0  0  0  0  0  0  0  0  0  0  0
   -3.6331   44.6682   56.1788 H   0  0  0  0  0  0  0  0  0  0  0  0
   -4.9405   43.5153   54.3974 H   0  0  0  0  0  0  0  0  0  0  0  0
   -3.9289   43.1237   52.1532 H   0  0  0  0  0  0  0  0  0  0  0  0
   -1.6085   43.8938   51.6752 H   0  0  0  0  0  0  0  0  0  0  0  0
    0.2362   45.2119   52.2541 H   0  0  0  0  0  0  0  0  0  0  0  0
    0.1597   46.2640   53.7398 H   0  0  0  0  0  0  0  0  0  0  0  0
    2.3435   42.8224   52.3641 H   0  0  0  0  0  0  0  0  0  0  0  0
    3.7349   41.6938   50.5919 H   0  0  0  0  0  0  0  0  0  0  0  0
  1  2  1  0
  2  3  1  0
  3  4  2  0
  3  5  1  0
  5  6  2  0
  6  7  1  0
  7  8  2  0
  8  9  1  0
  9 10  2  0
 10 11  1  0
 11 12  2  0
 11 13  2  0
 11 14  1  0
 14 15  1  0
 15 16  1  0
 16 17  2  0
 17 18  1  0
 18 19  2  0
 19 20  1  0
 20 21  2  0
 21 22  1  0
 22 23  2  0
 23 24  1  0
 24 25  2  0
 25 26  1  0
 26 27  2  0
 27 28  1  0
 10 29  1  0
 29 30  2  0
 30 31  1  0
 31 32  2  0
 31  2  1  0
 32  5  1  0
 32  9  1  0
 28 14  1  0
 21 16  1  0
 27 22  1  0
  1 33  1  0
  1 34  1  0
  1 35  1  0
  6 36  1  0
  7 37  1  0
  8 38  1  0
 15 39  1  0
 15 40  1  0
 17 41  1  0
 18 42  1  0
 19 43  1  0
 20 44  1  0
 23 45  1  0
 24 46  1  0
 25 47  1  0
 26 48  1  0
 28 49  1  0
 28 50  1  0
 29 51  1  0
 30 52  1  0
M  END
>  <meeko>  (4) 
{"is_sidechain": [false], "free_energy": -10.39, "intermolecular_energy": -11.386, "internal_energy": -0.252}

$$$$
ligand_38_conformer_1_docked
     RDKit          3D

 52 57  0  0  0  0  0  0  0  0999 V2000
    9.7150   45.6680   50.8320 C   0  0  0  0  0  0  0  0  0  0  0  0
    8.5200   46.1390   51.5200 N   0  0  0  0  0  0  0  0  0  0  0  0
    8.4930   46.8280   52.7810 C   0  0  0  0  0  0  0  0  0  0  0  0
    9.4790   47.4280   53.2870 O   0  0  0  0  0  0  0  0  0  0  0  0
    7.1760   46.6790   53.3930 C   0  0  0  0  0  0  0  0  0  0  0  0
    6.6050   47.1230   54.5850 C   0  0  0  0  0  0  0  0  0  0  0  0
    5.2750   46.7310   54.8610 C   0  0  0  0  0  0  0  0  0  0  0  0
    4.5580   45.9030   53.9600 C   0  0  0  0  0  0  0  0  0  0  0  0
    5.1710   45.4600   52.7630 C   0  0  0  0  0  0  0  0  0  0  0  0
    4.5910   44.6120   51.7840 C   0  0  0  0  0  0  0  0  0  0  0  0
    2.9320   44.0210   51.9440 S   0  0  0  0  0  0  0  0  0  0  0  0
    2.2310   44.0850   50.6140 O   0  0  0  0  0  0  0  0  0  0  0  0
    2.9770   42.5860   52.3920 O   0  0  0  0  0  0  0  0  0  0  0  0
    2.0560   44.9790   53.1170 N   0  0  0  0  0  0  0  0  0  0  0  0
    0.8920   45.6470   52.4870 C   0  0  0  0  0  0  0  0  0  0  0  0
   -0.3360   44.7630   52.3910 C   0  0  0  0  0  0  0  0  0  0  0  0
   -0.7630   44.2910   51.1380 C   0  0  0  0  0  0  0  0  0  0  0  0
   -1.9170   43.5130   51.0340 C   0  0  0  0  0  0  0  0  0  0  0  0
   -2.6590   43.2030   52.1750 C   0  0  0  0  0  0  0  0  0  0  0  0
   -2.2470   43.6640   53.4270 C   0  0  0  0  0  0  0  0  0  0  0  0
   -1.0810   44.4420   53.5500 C   0  0  0  0  0  0  0  0  0  0  0  0
   -0.6160   44.8890   54.8910 C   0  0  0  0  0  0  0  0  0  0  0  0
   -1.5240   45.4490   55.8070 C   0  0  0  0  0  0  0  0  0  0  0  0
   -1.0770   45.9350   57.0390 C   0  0  0  0  0  0  0  0  0  0  0  0
    0.2750   45.8650   57.3720 C   0  0  0  0  0  0  0  0  0  0  0  0
    1.1890   45.3040   56.4780 C   0  0  0  0  0  0  0  0  0  0  0  0
    0.7560   44.8050   55.2380 C   0  0  0  0  0  0  0  0  0  0  0  0
    1.7430   44.1450   54.2980 C   0  0  0  0  0  0  0  0  0  0  0  0
    5.3600   44.2430   50.6430 C   0  0  0  0  0  0  0  0  0  0  0  0
    6.6850   44.7040   50.4700 C   0  0  0  0  0  0  0  0  0  0  0  0
    7.2180   45.5460   51.4460 C   0  0  0  0  0  0  0  0  0  0  0  0
    6.4680   45.8910   52.5360 C   0  0  0  0  0  0  0  0  0  0  0  0
   10.4713   45.3699   51.5731 H   0  0  0  0  0  0  0  0  0  0  0  0
    9.4586   44.8037   50.2018 H   0  0  0  0  0  0  0  0  0  0  0  0
   10.1173   46.4748   50.2018 H   0  0  0  0  0  0  0  0  0  0  0  0
    7.1693   47.7558   55.2858 H   0  0  0  0  0  0  0  0  0  0  0  0
    4.7897   47.0728   55.7871 H   0  0  0  0  0  0  0  0  0  0  0  0
    3.5248   45.6047   54.1913 H   0  0  0  0  0  0  0  0  0  0  0  0
    0.6356   46.5349   53.0836 H   0  0  0  0  0  0  0  0  0  0  0  0
    1.1854   45.9046   51.4586 H   0  0  0  0  0  0  0  0  0  0  0  0
   -0.1848   44.5360   50.2348 H   0  0  0  0  0  0  0  0  0  0  0  0
   -2.2426   43.1432   50.0505 H   0  0  0  0  0  0  0  0  0  0  0  0
   -3.5708   42.5939   52.0876 H   0  0  0  0  0  0  0  0  0  0  0  0
   -2.8372   43.4176   54.3220 H   0  0  0  0  0  0  0  0  0  0  0  0
   -2.5927   45.5050   55.5525 H   0  0  0  0  0  0  0  0  0  0  0  0
   -1.7943   46.3741   57.7481 H   0  0  0  0  0  0  0  0  0  0  0  0
    0.6224   46.2526   58.3411 H   0  0  0  0  0  0  0  0  0  0  0  0
    2.2546   45.2524   56.7461 H   0  0  0  0  0  0  0  0  0  0  0  0
    2.6756   43.9503   54.8478 H   0  0  0  0  0  0  0  0  0  0  0  0
    1.2821   43.2150   53.9337 H   0  0  0  0  0  0  0  0  0  0  0  0
    4.9139   43.5864   49.8816 H   0  0  0  0  0  0  0  0  0  0  0  0
    7.2779   44.4077   49.5921 H   0  0  0  0  0  0  0  0  0  0  0  0
  1  2  1  0
  2  3  1  0
  3  4  2  0
  3  5  1  0
  5  6  2  0
  6  7  1  0
  7  8  2  0
  8  9  1  0
  9 10  2  0
 10 11  1  0
 11 12  2  0
 11 13  2  0
 11 14  1  0
 14 15  1  0
 15 16  1  0
 16 17  2  0
 17 18  1  0
 18 19  2  0
 19 20  1  0
 20 21  2  0
 21 22  1  0
 22 23  2  0
 23 24  1  0
 24 25  2  0
 25 26  1  0
 26 27  2  0
 27 28  1  0
 10 29  1  0
 29 30  2  0
 30 31  1  0
 31 32  2  0
 31  2  1  0
 32  5  1  0
 32  9  1  0
 28 14  1  0
 21 16  1  0
 27 22  1  0
  1 33  1  0
  1 34  1  0
  1 35  1  0
  6 36  1  0
  7 37  1  0
  8 38  1  0
 15 39  1  0
 15 40  1  0
 17 41  1  0
 18 42  1  0
 19 43  1  0
 20 44  1  0
 23 45  1  0
 24 46  1  0
 25 47  1  0
 26 48  1  0
 28 49  1  0
 28 50  1  0
 29 51  1  0
 30 52  1  0
M  END
>  <meeko>  (5) 
{"is_sidechain": [false], "free_energy": -9.678, "intermolecular_energy": -11.172, "internal_energy": 0.33}

$$$$
