MODEL 1
REMARK VINA RESULT:    -8.866      0.000      0.000
REMARK INTER + INTRA:         -10.795
REMARK INTER:                 -10.680
REMARK INTRA:                  -0.116
REMARK UNBOUND:                -0.116
REMARK SMILES Cc1nc(N2CC[C@H](CO)C2)c2cnn(-c3ccccc3)c2n1
REMARK SMILES IDX 5 1 6 2 7 3 8 4 11 5 4 6 2 7 3 8 23 9 22 10 12 11 15 12
REMARK SMILES IDX 13 13 14 14 1 15 16 16 17 17 21 18 18 19 20 20 19 21 9 22
REMARK SMILES IDX 10 23
REMARK H PARENT 10 24
ROOT
ATOM      1  N   UNL     1       1.703  45.095  54.282  1.00  0.00    -0.356 N 
ATOM      2  C   UNL     1       0.450  44.722  53.643  1.00  0.00     0.118 C 
ATOM      3  C   UNL     1      -0.625  44.916  54.703  1.00  0.00     0.029 C 
ATOM      4  C   UNL     1       0.117  44.905  56.044  1.00  0.00     0.036 C 
ATOM      5  C   UNL     1       1.556  45.309  55.712  1.00  0.00     0.124 C 
ENDROOT
BRANCH   1   6
ATOM      6  C   UNL     1       2.985  44.919  53.660  1.00  0.00     0.143 A 
ATOM      7  C   UNL     1       4.407  43.671  52.193  1.00  0.00     0.130 A 
ATOM      8  N   UNL     1       3.196  43.874  52.804  1.00  0.00    -0.215 NA
ATOM      9  N   UNL     1       5.444  44.533  52.417  1.00  0.00    -0.213 NA
ATOM     10  C   UNL     1       5.242  45.580  53.252  1.00  0.00     0.168 A 
ATOM     11  C   UNL     1       4.058  45.780  53.891  1.00  0.00     0.082 A 
ATOM     12  N   UNL     1       6.154  46.474  53.680  1.00  0.00    -0.215 N 
ATOM     13  C   UNL     1       4.288  46.835  54.753  1.00  0.00     0.150 A 
ATOM     14  N   UNL     1       5.575  47.235  54.604  1.00  0.00    -0.174 NA
ATOM     15  C   UNL     1       4.578  42.535  51.241  1.00  0.00     0.090 C 
BRANCH  12  16
ATOM     16  C   UNL     1       7.536  46.596  53.293  1.00  0.00     0.067 A 
ATOM     17  C   UNL     1       7.933  46.451  51.950  1.00  0.00     0.028 A 
ATOM     18  C   UNL     1       8.509  46.897  54.262  1.00  0.00     0.028 A 
ATOM     19  C   UNL     1       9.278  46.583  51.593  1.00  0.00     0.002 A 
ATOM     20  C   UNL     1       9.854  47.026  53.899  1.00  0.00     0.002 A 
ATOM     21  C   UNL     1      10.238  46.867  52.565  1.00  0.00     0.000 A 
ENDBRANCH  12  16
ENDBRANCH   1   6
BRANCH   4  22
ATOM     22  C   UNL     1      -0.524  45.825  57.092  1.00  0.00     0.161 C 
BRANCH  22  23
ATOM     23  O   UNL     1       0.450  46.264  57.997  1.00  0.00    -0.396 OA
ATOM     24  H   UNL     1       0.430  47.256  57.964  1.00  0.00     0.210 HD
ENDBRANCH  22  23
ENDBRANCH   4  22
TORSDOF 4
ENDMDL
MODEL 2
REMARK VINA RESULT:    -8.818      2.136      2.357
REMARK INTER + INTRA:         -10.738
REMARK INTER:                 -10.367
REMARK INTRA:                  -0.371
REMARK UNBOUND:                -0.116
REMARK SMILES Cc1nc(N2CC[C@H](CO)C2)c2cnn(-c3ccccc3)c2n1
REMARK SMILES IDX 5 1 6 2 7 3 8 4 11 5 4 6 2 7 3 8 23 9 22 10 12 11 15 12
REMARK SMILES IDX 13 13 14 14 1 15 16 16 17 17 21 18 18 19 20 20 19 21 9 22
REMARK SMILES IDX 10 23
REMARK H PARENT 10 24
ROOT
ATOM      1  N   UNL     1       1.639  43.964  52.414  1.00  0.00    -0.356 N 
ATOM      2  C   UNL     1       1.059  43.111  53.439  1.00  0.00     0.118 C 
ATOM      3  C   UNL     1      -0.419  43.471  53.486  1.00  0.00     0.029 C 
ATOM      4  C   UNL     1      -0.520  44.861  52.847  1.00  0.00     0.036 C 
ATOM      5  C   UNL     1       0.712  44.982  51.947  1.00  0.00     0.124 C 
ENDROOT
BRANCH   1   6
ATOM      6  C   UNL     1       3.050  44.034  52.155  1.00  0.00     0.143 A 
ATOM      7  C   UNL     1       4.996  43.127  51.097  1.00  0.00     0.130 A 
ATOM      8  N   UNL     1       3.651  43.096  51.364  1.00  0.00    -0.215 NA
ATOM      9  N   UNL     1       5.777  44.123  51.611  1.00  0.00    -0.213 NA
ATOM     10  C   UNL     1       5.189  45.067  52.386  1.00  0.00     0.168 A 
ATOM     11  C   UNL     1       3.863  45.035  52.687  1.00  0.00     0.082 A 
ATOM     12  N   UNL     1       5.793  46.062  53.064  1.00  0.00    -0.215 N 
ATOM     13  C   UNL     1       3.678  46.053  53.603  1.00  0.00     0.150 A 
ATOM     14  N   UNL     1       4.872  46.658  53.816  1.00  0.00    -0.174 NA
ATOM     15  C   UNL     1       5.599  42.098  50.200  1.00  0.00     0.090 C 
BRANCH  12  16
ATOM     16  C   UNL     1       7.187  46.424  53.066  1.00  0.00     0.067 A 
ATOM     17  C   UNL     1       7.932  46.464  51.872  1.00  0.00     0.028 A 
ATOM     18  C   UNL     1       7.815  46.779  54.273  1.00  0.00     0.028 A 
ATOM     19  C   UNL     1       9.281  46.828  51.893  1.00  0.00     0.002 A 
ATOM     20  C   UNL     1       9.166  47.141  54.288  1.00  0.00     0.002 A 
ATOM     21  C   UNL     1       9.899  47.163  53.100  1.00  0.00     0.000 A 
ENDBRANCH  12  16
ENDBRANCH   1   6
BRANCH   4  22
ATOM     22  C   UNL     1      -1.831  45.073  52.078  1.00  0.00     0.161 C 
BRANCH  22  23
ATOM     23  O   UNL     1      -2.103  46.444  51.973  1.00  0.00    -0.396 OA
ATOM     24  H   UNL     1      -2.302  46.612  51.015  1.00  0.00     0.210 HD
ENDBRANCH  22  23
ENDBRANCH   4  22
TORSDOF 4
ENDMDL
MODEL 3
REMARK VINA RESULT:    -8.336      2.451      7.024
REMARK INTER + INTRA:         -10.157
REMARK INTER:                  -9.702
REMARK INTRA:                  -0.455
REMARK UNBOUND:                -0.116
REMARK SMILES Cc1nc(N2CC[C@H](CO)C2)c2cnn(-c3ccccc3)c2n1
REMARK SMILES IDX 5 1 6 2 7 3 8 4 11 5 4 6 2 7 3 8 23 9 22 10 12 11 15 12
REMARK SMILES IDX 13 13 14 14 1 15 16 16 17 17 21 18 18 19 20 20 19 21 9 22
REMARK SMILES IDX 10 23
REMARK H PARENT 10 24
ROOT
ATOM      1  N   UNL     1       7.216  45.992  52.541  1.00  0.00    -0.356 N 
ATOM      2  C   UNL     1       7.876  46.729  51.474  1.00  0.00     0.118 C 
ATOM      3  C   UNL     1       9.020  47.479  52.142  1.00  0.00     0.029 C 
ATOM      4  C   UNL     1       8.655  47.539  53.629  1.00  0.00     0.036 C 
ATOM      5  C   UNL     1       7.701  46.364  53.859  1.00  0.00     0.124 C 
ENDROOT
BRANCH   1   6
ATOM      6  C   UNL     1       5.994  45.261  52.350  1.00  0.00     0.143 A 
ATOM      7  C   UNL     1       4.821  43.440  51.331  1.00  0.00     0.130 A 
ATOM      8  N   UNL     1       5.969  44.161  51.540  1.00  0.00    -0.215 NA
ATOM      9  N   UNL     1       3.659  43.802  51.953  1.00  0.00    -0.213 NA
ATOM     10  C   UNL     1       3.675  44.883  52.770  1.00  0.00     0.168 A 
ATOM     11  C   UNL     1       4.796  45.628  52.965  1.00  0.00     0.082 A 
ATOM     12  N   UNL     1       2.625  45.457  53.388  1.00  0.00    -0.215 N 
ATOM     13  C   UNL     1       4.383  46.707  53.722  1.00  0.00     0.150 A 
ATOM     14  N   UNL     1       3.055  46.577  53.962  1.00  0.00    -0.174 NA
ATOM     15  C   UNL     1       4.852  42.228  50.463  1.00  0.00     0.090 C 
BRANCH  12  16
ATOM     16  C   UNL     1       1.252  45.022  53.409  1.00  0.00     0.067 A 
ATOM     17  C   UNL     1       0.367  45.354  52.366  1.00  0.00     0.028 A 
ATOM     18  C   UNL     1       0.787  44.224  54.469  1.00  0.00     0.028 A 
ATOM     19  C   UNL     1      -0.960  44.914  52.398  1.00  0.00     0.002 A 
ATOM     20  C   UNL     1      -0.542  43.788  54.497  1.00  0.00     0.002 A 
ATOM     21  C   UNL     1      -1.415  44.135  53.464  1.00  0.00     0.000 A 
ENDBRANCH  12  16
ENDBRANCH   1   6
BRANCH   4  22
ATOM     22  C   UNL     1       9.883  47.487  54.549  1.00  0.00     0.161 C 
BRANCH  22  23
ATOM     23  O   UNL     1       9.652  48.265  55.691  1.00  0.00    -0.396 OA
ATOM     24  H   UNL     1       9.760  49.210  55.408  1.00  0.00     0.210 HD
ENDBRANCH  22  23
ENDBRANCH   4  22
TORSDOF 4
ENDMDL
MODEL 4
REMARK VINA RESULT:    -7.074      2.619      3.892
REMARK INTER + INTRA:          -8.637
REMARK INTER:                  -8.461
REMARK INTRA:                  -0.175
REMARK UNBOUND:                -0.116
REMARK SMILES Cc1nc(N2CC[C@H](CO)C2)c2cnn(-c3ccccc3)c2n1
REMARK SMILES IDX 5 1 6 2 7 3 8 4 11 5 4 6 2 7 3 8 23 9 22 10 12 11 15 12
REMARK SMILES IDX 13 13 14 14 1 15 16 16 17 17 21 18 18 19 20 20 19 21 9 22
REMARK SMILES IDX 10 23
REMARK H PARENT 10 24
ROOT
ATOM      1  N   UNL     1       1.097  43.710  52.519  1.00  0.00    -0.356 N 
ATOM      2  C   UNL     1       0.567  42.451  53.020  1.00  0.00     0.118 C 
ATOM      3  C   UNL     1      -0.709  42.200  52.230  1.00  0.00     0.029 C 
ATOM      4  C   UNL     1      -1.120  43.568  51.673  1.00  0.00     0.036 C 
ATOM      5  C   UNL     1       0.170  44.391  51.631  1.00  0.00     0.124 C 
ENDROOT
BRANCH   1   6
ATOM      6  C   UNL     1       2.227  44.375  53.106  1.00  0.00     0.143 A 
ATOM      7  C   UNL     1       3.196  45.539  54.960  1.00  0.00     0.130 A 
ATOM      8  N   UNL     1       2.141  44.894  54.367  1.00  0.00    -0.215 NA
ATOM      9  N   UNL     1       4.385  45.665  54.297  1.00  0.00    -0.213 NA
ATOM     10  C   UNL     1       4.487  45.141  53.052  1.00  0.00     0.168 A 
ATOM     11  C   UNL     1       3.442  44.526  52.436  1.00  0.00     0.082 A 
ATOM     12  N   UNL     1       5.526  45.247  52.202  1.00  0.00    -0.215 N 
ATOM     13  C   UNL     1       3.880  44.271  51.151  1.00  0.00     0.150 A 
ATOM     14  N   UNL     1       5.153  44.725  51.037  1.00  0.00    -0.174 NA
ATOM     15  C   UNL     1       3.063  46.060  56.351  1.00  0.00     0.090 C 
BRANCH  12  16
ATOM     16  C   UNL     1       6.810  45.859  52.431  1.00  0.00     0.067 A 
ATOM     17  C   UNL     1       7.213  46.245  53.723  1.00  0.00     0.028 A 
ATOM     18  C   UNL     1       7.696  46.048  51.356  1.00  0.00     0.028 A 
ATOM     19  C   UNL     1       8.467  46.828  53.927  1.00  0.00     0.002 A 
ATOM     20  C   UNL     1       8.949  46.634  51.565  1.00  0.00     0.002 A 
ATOM     21  C   UNL     1       9.333  47.025  52.850  1.00  0.00     0.000 A 
ENDBRANCH  12  16
ENDBRANCH   1   6
BRANCH   4  22
ATOM     22  C   UNL     1      -1.803  43.476  50.302  1.00  0.00     0.161 C 
BRANCH  22  23
ATOM     23  O   UNL     1      -0.868  43.094  49.331  1.00  0.00    -0.396 OA
ATOM     24  H   UNL     1      -1.297  43.263  48.453  1.00  0.00     0.210 HD
ENDBRANCH  22  23
ENDBRANCH   4  22
TORSDOF 4
ENDMDL
MODEL 5
REMARK VINA RESULT:    -7.026      4.660      7.150
REMARK INTER + INTRA:          -8.579
REMARK INTER:                  -8.650
REMARK INTRA:                   0.071
REMARK UNBOUND:                -0.116
REMARK SMILES Cc1nc(N2CC[C@H](CO)C2)c2cnn(-c3ccccc3)c2n1
REMARK SMILES IDX 5 1 6 2 7 3 8 4 11 5 4 6 2 7 3 8 23 9 22 10 12 11 15 12
REMARK SMILES IDX 13 13 14 14 1 15 16 16 17 17 21 18 18 19 20 20 19 21 9 22
REMARK SMILES IDX 10 23
REMARK H PARENT 10 24
ROOT
ATOM      1  N   UNL     1       5.053  41.557  48.194  1.00  0.00    -0.356 N 
ATOM      2  C   UNL     1       4.036  40.517  48.197  1.00  0.00     0.118 C 
ATOM      3  C   UNL     1       4.000  39.975  46.775  1.00  0.00     0.029 C 
ATOM      4  C   UNL     1       4.631  41.068  45.906  1.00  0.00     0.036 C 
ATOM      5  C   UNL     1       5.521  41.875  46.855  1.00  0.00     0.124 C 
ENDROOT
BRANCH   1   6
ATOM      6  C   UNL     1       5.300  42.417  49.318  1.00  0.00     0.143 A 
ATOM      7  C   UNL     1       4.614  43.272  51.446  1.00  0.00     0.130 A 
ATOM      8  N   UNL     1       4.414  42.462  50.357  1.00  0.00    -0.215 NA
ATOM      9  N   UNL     1       5.731  44.055  51.525  1.00  0.00    -0.213 NA
ATOM     10  C   UNL     1       6.625  44.007  50.507  1.00  0.00     0.168 A 
ATOM     11  C   UNL     1       6.428  43.234  49.406  1.00  0.00     0.082 A 
ATOM     12  N   UNL     1       7.725  44.768  50.348  1.00  0.00    -0.215 N 
ATOM     13  C   UNL     1       7.456  43.567  48.545  1.00  0.00     0.150 A 
ATOM     14  N   UNL     1       8.228  44.506  49.144  1.00  0.00    -0.174 NA
ATOM     15  C   UNL     1       3.633  43.262  52.570  1.00  0.00     0.090 C 
BRANCH  12  16
ATOM     16  C   UNL     1       8.273  45.748  51.249  1.00  0.00     0.067 A 
ATOM     17  C   UNL     1       7.459  46.739  51.830  1.00  0.00     0.028 A 
ATOM     18  C   UNL     1       9.636  45.702  51.588  1.00  0.00     0.028 A 
ATOM     19  C   UNL     1       8.007  47.676  52.711  1.00  0.00     0.002 A 
ATOM     20  C   UNL     1      10.180  46.642  52.469  1.00  0.00     0.002 A 
ATOM     21  C   UNL     1       9.366  47.630  53.028  1.00  0.00     0.000 A 
ENDBRANCH  12  16
ENDBRANCH   1   6
BRANCH   4  22
ATOM     22  C   UNL     1       5.409  40.506  44.708  1.00  0.00     0.161 C 
BRANCH  22  23
ATOM     23  O   UNL     1       5.481  41.470  43.695  1.00  0.00    -0.396 OA
ATOM     24  H   UNL     1       6.440  41.710  43.609  1.00  0.00     0.210 HD
ENDBRANCH  22  23
ENDBRANCH   4  22
TORSDOF 4
ENDMDL
