ligand_19_conformer_1_docked
     RDKit          3D

 47 50  0  0  0  0  0  0  0  0999 V2000
   10.3430   46.9220   54.5860 O   0  0  0  0  0  0  0  0  0  0  0  0
    9.6030   47.1740   53.5990 C   0  0  0  0  0  0  0  0  0  0  0  0
    8.5970   48.2520   53.5750 C   0  0  0  0  0  0  0  0  0  0  0  0
    8.0200   48.1710   52.1520 C   0  0  0  0  0  0  0  0  0  0  0  0
    8.6960   46.9650   51.4480 C   0  0  2  0  0  0  0  0  0  0  0  0
    7.6930   45.9020   51.0550 C   0  0  0  0  0  0  0  0  0  0  0  0
    7.9750   44.9970   50.0170 C   0  0  0  0  0  0  0  0  0  0  0  0
    7.0560   44.0010   49.6810 C   0  0  0  0  0  0  0  0  0  0  0  0
    5.8490   43.8940   50.3750 C   0  0  0  0  0  0  0  0  0  0  0  0
    5.5450   44.7950   51.4110 C   0  0  0  0  0  0  0  0  0  0  0  0
    4.3270   44.6830   52.1670 N   0  0  0  0  0  0  0  0  0  0  0  0
    3.0520   45.1640   51.7100 C   0  0  0  0  0  0  0  0  0  0  0  0
    2.9930   45.9840   50.7530 O   0  0  0  0  0  0  0  0  0  0  0  0
    1.8070   44.7300   52.3820 C   0  0  0  0  0  0  0  0  0  0  0  0
    1.8330   43.7810   53.4170 C   0  0  0  0  0  0  0  0  0  0  0  0
    0.6390   43.3980   54.0300 C   0  0  0  0  0  0  0  0  0  0  0  0
   -0.5720   43.9690   53.6280 C   0  0  0  0  0  0  0  0  0  0  0  0
   -1.7580   43.5550   54.2520 O   0  0  0  0  0  0  0  0  0  0  0  0
   -2.3140   44.1320   55.4030 C   0  0  0  0  0  0  0  0  0  0  0  0
   -2.3850   43.3670   56.5740 C   0  0  0  0  0  0  0  0  0  0  0  0
   -2.9180   43.9130   57.7460 C   0  0  0  0  0  0  0  0  0  0  0  0
   -3.3710   45.2360   57.7590 C   0  0  0  0  0  0  0  0  0  0  0  0
   -3.2890   46.0140   56.6000 C   0  0  0  0  0  0  0  0  0  0  0  0
   -2.7570   45.4690   55.4260 C   0  0  0  0  0  0  0  0  0  0  0  0
   -0.5610   44.9020   52.5800 C   0  0  0  0  0  0  0  0  0  0  0  0
    0.6120   45.2560   51.9930 N   0  0  0  0  0  0  0  0  0  0  0  0
    6.4820   45.7820   51.7570 C   0  0  0  0  0  0  0  0  0  0  0  0
    9.6550   46.4330   52.3990 N   0  0  0  0  0  0  0  0  0  0  0  0
    7.8142   48.0764   54.3275 H   0  0  0  0  0  0  0  0  0  0  0  0
    9.0207   49.2394   53.8106 H   0  0  0  0  0  0  0  0  0  0  0  0
    6.9313   48.0197   52.1953 H   0  0  0  0  0  0  0  0  0  0  0  0
    8.2131   49.1026   51.5998 H   0  0  0  0  0  0  0  0  0  0  0  0
    9.1781   47.2860   50.5128 H   0  0  0  0  0  0  0  0  0  0  0  0
    8.9244   45.0739   49.4667 H   0  0  0  0  0  0  0  0  0  0  0  0
    7.2837   43.2978   48.8663 H   0  0  0  0  0  0  0  0  0  0  0  0
    5.1332   43.1018   50.1103 H   0  0  0  0  0  0  0  0  0  0  0  0
    4.3920   44.3030   53.1380 H   0  0  0  0  0  0  0  0  0  0  0  0
    2.7879   43.3425   53.7423 H   0  0  0  0  0  0  0  0  0  0  0  0
    0.6509   42.6448   54.8316 H   0  0  0  0  0  0  0  0  0  0  0  0
   -2.0190   42.3297   56.5719 H   0  0  0  0  0  0  0  0  0  0  0  0
   -2.9810   43.3015   58.6582 H   0  0  0  0  0  0  0  0  0  0  0  0
   -3.7917   45.6645   58.6806 H   0  0  0  0  0  0  0  0  0  0  0  0
   -3.6430   47.0554   56.6111 H   0  0  0  0  0  0  0  0  0  0  0  0
   -2.6845   46.0864   54.5185 H   0  0  0  0  0  0  0  0  0  0  0  0
   -1.5047   45.3480   52.2328 H   0  0  0  0  0  0  0  0  0  0  0  0
    6.2652   46.4696   52.5878 H   0  0  0  0  0  0  0  0  0  0  0  0
   10.3060   45.6380   52.2150 H   0  0  0  0  0  0  0  0  0  0  0  0
  1  2  2  0
  2  3  1  0
  3  4  1  0
  4  5  1  0
  5  6  1  0
  6  7  2  0
  7  8  1  0
  8  9  2  0
  9 10  1  0
 10 11  1  0
 11 12  1  0
 12 13  2  0
 12 14  1  0
 14 15  2  0
 15 16  1  0
 16 17  2  0
 17 18  1  0
 18 19  1  0
 19 20  2  0
 20 21  1  0
 21 22  2  0
 22 23  1  0
 23 24  2  0
 17 25  1  0
 25 26  2  0
 10 27  2  0
  5 28  1  0
 28  2  1  0
 27  6  1  0
 26 14  1  0
 24 19  1  0
  3 29  1  0
  3 30  1  0
  4 31  1  0
  4 32  1  0
  5 33  1  6
  7 34  1  0
  8 35  1  0
  9 36  1  0
 11 37  1  0
 15 38  1  0
 16 39  1  0
 20 40  1  0
 21 41  1  0
 22 42  1  0
 23 43  1  0
 24 44  1  0
 25 45  1  0
 27 46  1  0
 28 47  1  0
M  END
>  <meeko>  (1) 
{"is_sidechain": [false], "free_energy": -8.93, "intermolecular_energy": -11.54, "internal_energy": -0.861}

$$$$
ligand_19_conformer_1_docked
     RDKit          3D

 47 50  0  0  0  0  0  0  0  0999 V2000
   -1.5640   42.8630   49.6890 O   0  0  0  0  0  0  0  0  0  0  0  0
   -2.2530   43.4550   50.5610 C   0  0  0  0  0  0  0  0  0  0  0  0
   -2.7850   44.8220   50.4040 C   0  0  0  0  0  0  0  0  0  0  0  0
   -3.5830   45.0460   51.6990 C   0  0  0  0  0  0  0  0  0  0  0  0
   -3.3920   43.7850   52.5820 C   0  0  2  0  0  0  0  0  0  0  0  0
   -2.7090   44.1070   53.8920 C   0  0  0  0  0  0  0  0  0  0  0  0
   -3.3180   43.7880   55.1190 C   0  0  0  0  0  0  0  0  0  0  0  0
   -2.6660   44.0630   56.3230 C   0  0  0  0  0  0  0  0  0  0  0  0
   -1.4020   44.6570   56.3190 C   0  0  0  0  0  0  0  0  0  0  0  0
   -0.7810   44.9920   55.1030 C   0  0  0  0  0  0  0  0  0  0  0  0
    0.5360   45.5690   55.0700 N   0  0  0  0  0  0  0  0  0  0  0  0
    1.6750   44.9370   54.4620 C   0  0  0  0  0  0  0  0  0  0  0  0
    1.6440   43.7050   54.1940 O   0  0  0  0  0  0  0  0  0  0  0  0
    2.8990   45.7180   54.1800 C   0  0  0  0  0  0  0  0  0  0  0  0
    4.1330   45.3670   54.7520 C   0  0  0  0  0  0  0  0  0  0  0  0
    5.2680   46.1250   54.4600 C   0  0  0  0  0  0  0  0  0  0  0  0
    5.1800   47.2150   53.5900 C   0  0  0  0  0  0  0  0  0  0  0  0
    6.3330   47.9680   53.3240 O   0  0  0  0  0  0  0  0  0  0  0  0
    7.5830   47.4410   52.9660 C   0  0  0  0  0  0  0  0  0  0  0  0
    8.6620   47.6080   53.8430 C   0  0  0  0  0  0  0  0  0  0  0  0
    9.9190   47.0830   53.5280 C   0  0  0  0  0  0  0  0  0  0  0  0
   10.1020   46.3730   52.3380 C   0  0  0  0  0  0  0  0  0  0  0  0
    9.0280   46.1850   51.4640 C   0  0  0  0  0  0  0  0  0  0  0  0
    7.7690   46.7100   51.7760 C   0  0  0  0  0  0  0  0  0  0  0  0
    3.9280   47.5460   53.0490 C   0  0  0  0  0  0  0  0  0  0  0  0
    2.8340   46.7970   53.3510 N   0  0  0  0  0  0  0  0  0  0  0  0
   -1.4320   44.6950   53.8960 C   0  0  0  0  0  0  0  0  0  0  0  0
   -2.5840   42.8670   51.7990 N   0  0  0  0  0  0  0  0  0  0  0  0
   -1.9688   45.5538   50.3133 H   0  0  0  0  0  0  0  0  0  0  0  0
   -3.3959   44.9431   49.4973 H   0  0  0  0  0  0  0  0  0  0  0  0
   -3.2049   45.9349   52.2252 H   0  0  0  0  0  0  0  0  0  0  0  0
   -4.6481   45.2086   51.4771 H   0  0  0  0  0  0  0  0  0  0  0  0
   -4.3671   43.3513   52.8487 H   0  0  0  0  0  0  0  0  0  0  0  0
   -4.3131   43.3194   55.1304 H   0  0  0  0  0  0  0  0  0  0  0  0
   -3.1498   43.8108   57.2781 H   0  0  0  0  0  0  0  0  0  0  0  0
   -0.8905   44.8635   57.2707 H   0  0  0  0  0  0  0  0  0  0  0  0
    0.6870   46.4630   55.5900 H   0  0  0  0  0  0  0  0  0  0  0  0
    4.2044   44.5004   55.4257 H   0  0  0  0  0  0  0  0  0  0  0  0
    6.2344   45.8637   54.9159 H   0  0  0  0  0  0  0  0  0  0  0  0
    8.5196   48.1560   54.7861 H   0  0  0  0  0  0  0  0  0  0  0  0
   10.7641   47.2288   54.2169 H   0  0  0  0  0  0  0  0  0  0  0  0
   11.0917   45.9621   52.0894 H   0  0  0  0  0  0  0  0  0  0  0  0
    9.1725   45.6234   50.5293 H   0  0  0  0  0  0  0  0  0  0  0  0
    6.9230   46.5517   51.0910 H   0  0  0  0  0  0  0  0  0  0  0  0
    3.8315   48.4132   52.3792 H   0  0  0  0  0  0  0  0  0  0  0  0
   -0.9370   44.9251   52.9410 H   0  0  0  0  0  0  0  0  0  0  0  0
   -2.3110   41.9040   52.0960 H   0  0  0  0  0  0  0  0  0  0  0  0
  1  2  2  0
  2  3  1  0
  3  4  1  0
  4  5  1  0
  5  6  1  0
  6  7  2  0
  7  8  1  0
  8  9  2  0
  9 10  1  0
 10 11  1  0
 11 12  1  0
 12 13  2  0
 12 14  1  0
 14 15  2  0
 15 16  1  0
 16 17  2  0
 17 18  1  0
 18 19  1  0
 19 20  2  0
 20 21  1  0
 21 22  2  0
 22 23  1  0
 23 24  2  0
 17 25  1  0
 25 26  2  0
 10 27  2  0
  5 28  1  0
 28  2  1  0
 27  6  1  0
 26 14  1  0
 24 19  1  0
  3 29  1  0
  3 30  1  0
  4 31  1  0
  4 32  1  0
  5 33  1  1
  7 34  1  0
  8 35  1  0
  9 36  1  0
 11 37  1  0
 15 38  1  0
 16 39  1  0
 20 40  1  0
 21 41  1  0
 22 42  1  0
 23 43  1  0
 24 44  1  0
 25 45  1  0
 27 46  1  0
 28 47  1  0
M  END
>  <meeko>  (2) 
{"is_sidechain": [false], "free_energy": -8.596, "intermolecular_energy": -11.143, "internal_energy": -0.827}

$$$$
ligand_19_conformer_1_docked
     RDKit          3D

 47 50  0  0  0  0  0  0  0  0999 V2000
    5.5160   37.5960   41.9880 O   0  0  0  0  0  0  0  0  0  0  0  0
    5.2320   38.5790   42.7210 C   0  0  0  0  0  0  0  0  0  0  0  0
    6.1800   39.6580   43.0590 C   0  0  0  0  0  0  0  0  0  0  0  0
    5.3380   40.6190   43.9150 C   0  0  0  0  0  0  0  0  0  0  0  0
    3.9370   39.9760   44.0860 C   0  0  2  0  0  0  0  0  0  0  0  0
    3.6210   39.6810   45.5360 C   0  0  0  0  0  0  0  0  0  0  0  0
    3.0730   38.4430   45.9150 C   0  0  0  0  0  0  0  0  0  0  0  0
    2.8120   38.1680   47.2590 C   0  0  0  0  0  0  0  0  0  0  0  0
    3.0950   39.1220   48.2390 C   0  0  0  0  0  0  0  0  0  0  0  0
    3.6350   40.3690   47.8790 C   0  0  0  0  0  0  0  0  0  0  0  0
    3.9720   41.3540   48.8720 N   0  0  0  0  0  0  0  0  0  0  0  0
    5.3140   41.6270   49.3100 C   0  0  0  0  0  0  0  0  0  0  0  0
    6.2360   40.8020   49.0660 O   0  0  0  0  0  0  0  0  0  0  0  0
    5.6120   42.8560   50.0770 C   0  0  0  0  0  0  0  0  0  0  0  0
    6.6310   43.7340   49.6750 C   0  0  0  0  0  0  0  0  0  0  0  0
    6.8810   44.8870   50.4220 C   0  0  0  0  0  0  0  0  0  0  0  0
    6.1100   45.1730   51.5530 C   0  0  0  0  0  0  0  0  0  0  0  0
    6.3920   46.3300   52.2930 O   0  0  0  0  0  0  0  0  0  0  0  0
    7.6400   46.6580   52.8430 C   0  0  0  0  0  0  0  0  0  0  0  0
    7.6910   47.1540   54.1520 C   0  0  0  0  0  0  0  0  0  0  0  0
    8.9180   47.4780   54.7400 C   0  0  0  0  0  0  0  0  0  0  0  0
   10.1060   47.2930   54.0270 C   0  0  0  0  0  0  0  0  0  0  0  0
   10.0680   46.7820   52.7260 C   0  0  0  0  0  0  0  0  0  0  0  0
    8.8410   46.4580   52.1350 C   0  0  0  0  0  0  0  0  0  0  0  0
    5.1110   44.2630   51.9340 C   0  0  0  0  0  0  0  0  0  0  0  0
    4.8880   43.1440   51.1950 N   0  0  0  0  0  0  0  0  0  0  0  0
    3.9140   40.6310   46.5280 C   0  0  0  0  0  0  0  0  0  0  0  0
    3.9630   38.7480   43.3110 N   0  0  0  0  0  0  0  0  0  0  0  0
    7.0337   39.2665   43.6316 H   0  0  0  0  0  0  0  0  0  0  0  0
    6.6132   40.1420   42.1712 H   0  0  0  0  0  0  0  0  0  0  0  0
    5.8104   40.7596   44.8984 H   0  0  0  0  0  0  0  0  0  0  0  0
    5.2585   41.6038   43.4314 H   0  0  0  0  0  0  0  0  0  0  0  0
    3.1527   40.6652   43.7398 H   0  0  0  0  0  0  0  0  0  0  0  0
    2.8485   37.6867   45.1485 H   0  0  0  0  0  0  0  0  0  0  0  0
    2.3823   37.1971   47.5467 H   0  0  0  0  0  0  0  0  0  0  0  0
    2.8945   38.8967   49.2969 H   0  0  0  0  0  0  0  0  0  0  0  0
    3.1850   41.8390   49.3600 H   0  0  0  0  0  0  0  0  0  0  0  0
    7.2284   43.5152   48.7777 H   0  0  0  0  0  0  0  0  0  0  0  0
    7.6867   45.5722   50.1199 H   0  0  0  0  0  0  0  0  0  0  0  0
    6.7597   47.2896   54.7214 H   0  0  0  0  0  0  0  0  0  0  0  0
    8.9481   47.8786   55.7640 H   0  0  0  0  0  0  0  0  0  0  0  0
   11.0706   47.5494   54.4893 H   0  0  0  0  0  0  0  0  0  0  0  0
   11.0034   46.6344   52.1662 H   0  0  0  0  0  0  0  0  0  0  0  0
    8.8148   46.0463   51.1153 H   0  0  0  0  0  0  0  0  0  0  0  0
    4.5071   44.4560   52.8329 H   0  0  0  0  0  0  0  0  0  0  0  0
    4.3675   41.5919   46.2432 H   0  0  0  0  0  0  0  0  0  0  0  0
    3.1530   38.1000   43.1850 H   0  0  0  0  0  0  0  0  0  0  0  0
  1  2  2  0
  2  3  1  0
  3  4  1  0
  4  5  1  0
  5  6  1  0
  6  7  2  0
  7  8  1  0
  8  9  2  0
  9 10  1  0
 10 11  1  0
 11 12  1  0
 12 13  2  0
 12 14  1  0
 14 15  2  0
 15 16  1  0
 16 17  2  0
 17 18  1  0
 18 19  1  0
 19 20  2  0
 20 21  1  0
 21 22  2  0
 22 23  1  0
 23 24  2  0
 17 25  1  0
 25 26  2  0
 10 27  2  0
  5 28  1  0
 28  2  1  0
 27  6  1  0
 26 14  1  0
 24 19  1  0
  3 29  1  0
  3 30  1  0
  4 31  1  0
  4 32  1  0
  5 33  1  6
  7 34  1  0
  8 35  1  0
  9 36  1  0
 11 37  1  0
 15 38  1  0
 16 39  1  0
 20 40  1  0
 21 41  1  0
 22 42  1  0
 23 43  1  0
 24 44  1  0
 25 45  1  0
 27 46  1  0
 28 47  1  0
M  END
>  <meeko>  (3) 
{"is_sidechain": [false], "free_energy": -8.29, "intermolecular_energy": -11.148, "internal_energy": -0.427}

$$$$
ligand_19_conformer_1_docked
     RDKit          3D

 47 50  0  0  0  0  0  0  0  0999 V2000
   -2.0230   46.0280   58.1380 O   0  0  0  0  0  0  0  0  0  0  0  0
   -2.5950   45.2900   57.2930 C   0  0  0  0  0  0  0  0  0  0  0  0
   -2.8750   43.8570   57.5030 C   0  0  0  0  0  0  0  0  0  0  0  0
   -3.6190   43.4470   56.2220 C   0  0  0  0  0  0  0  0  0  0  0  0
   -3.6550   44.6880   55.2920 C   0  0  2  0  0  0  0  0  0  0  0  0
   -2.9240   44.4440   53.9900 C   0  0  0  0  0  0  0  0  0  0  0  0
   -3.5780   43.8440   52.9000 C   0  0  0  0  0  0  0  0  0  0  0  0
   -2.9030   43.6500   51.6930 C   0  0  0  0  0  0  0  0  0  0  0  0
   -1.5720   44.0500   51.5580 C   0  0  0  0  0  0  0  0  0  0  0  0
   -0.8980   44.6440   52.6400 C   0  0  0  0  0  0  0  0  0  0  0  0
    0.4600   45.1010   52.5160 N   0  0  0  0  0  0  0  0  0  0  0  0
    1.6090   44.2480   52.6510 C   0  0  0  0  0  0  0  0  0  0  0  0
    1.4930   43.1130   53.1880 O   0  0  0  0  0  0  0  0  0  0  0  0
    2.9380   44.7100   52.1930 C   0  0  0  0  0  0  0  0  0  0  0  0
    3.0780   45.8850   51.4370 C   0  0  0  0  0  0  0  0  0  0  0  0
    4.3480   46.2920   51.0260 C   0  0  0  0  0  0  0  0  0  0  0  0
    5.4750   45.5450   51.3810 C   0  0  0  0  0  0  0  0  0  0  0  0
    6.7380   45.9700   50.9440 O   0  0  0  0  0  0  0  0  0  0  0  0
    7.7870   46.3890   51.7760 C   0  0  0  0  0  0  0  0  0  0  0  0
    9.0970   46.0120   51.4520 C   0  0  0  0  0  0  0  0  0  0  0  0
   10.1690   46.4240   52.2480 C   0  0  0  0  0  0  0  0  0  0  0  0
    9.9420   47.2310   53.3670 C   0  0  0  0  0  0  0  0  0  0  0  0
    8.6410   47.6280   53.6880 C   0  0  0  0  0  0  0  0  0  0  0  0
    7.5650   47.2160   52.8940 C   0  0  0  0  0  0  0  0  0  0  0  0
    5.2950   44.3680   52.1250 C   0  0  0  0  0  0  0  0  0  0  0  0
    4.0490   43.9870   52.5090 N   0  0  0  0  0  0  0  0  0  0  0  0
   -1.5880   44.8550   53.8450 C   0  0  0  0  0  0  0  0  0  0  0  0
   -3.0250   45.7630   56.0360 N   0  0  0  0  0  0  0  0  0  0  0  0
   -1.9415   43.2861   57.6157 H   0  0  0  0  0  0  0  0  0  0  0  0
   -3.4553   43.6626   58.4171 H   0  0  0  0  0  0  0  0  0  0  0  0
   -3.0882   42.6206   55.7266 H   0  0  0  0  0  0  0  0  0  0  0  0
   -4.6383   43.1061   56.4559 H   0  0  0  0  0  0  0  0  0  0  0  0
   -4.6914   44.9310   55.0147 H   0  0  0  0  0  0  0  0  0  0  0  0
   -4.6264   43.5258   52.9982 H   0  0  0  0  0  0  0  0  0  0  0  0
   -3.4222   43.1800   50.8448 H   0  0  0  0  0  0  0  0  0  0  0  0
   -1.0489   43.9000   50.6021 H   0  0  0  0  0  0  0  0  0  0  0  0
    0.6180   46.1280   52.4030 H   0  0  0  0  0  0  0  0  0  0  0  0
    2.1925   46.4807   51.1705 H   0  0  0  0  0  0  0  0  0  0  0  0
    4.4626   47.2034   50.4208 H   0  0  0  0  0  0  0  0  0  0  0  0
    9.2827   45.3878   50.5655 H   0  0  0  0  0  0  0  0  0  0  0  0
   11.1930   46.1130   51.9939 H   0  0  0  0  0  0  0  0  0  0  0  0
   10.7865   47.5531   53.9940 H   0  0  0  0  0  0  0  0  0  0  0  0
    8.4626   48.2655   54.5665 H   0  0  0  0  0  0  0  0  0  0  0  0
    6.5435   47.5388   53.1437 H   0  0  0  0  0  0  0  0  0  0  0  0
    6.1652   43.7528   52.3976 H   0  0  0  0  0  0  0  0  0  0  0  0
   -1.0767   45.3477   54.6851 H   0  0  0  0  0  0  0  0  0  0  0  0
   -2.9270   46.7490   55.7020 H   0  0  0  0  0  0  0  0  0  0  0  0
  1  2  2  0
  2  3  1  0
  3  4  1  0
  4  5  1  0
  5  6  1  0
  6  7  2  0
  7  8  1  0
  8  9  2  0
  9 10  1  0
 10 11  1  0
 11 12  1  0
 12 13  2  0
 12 14  1  0
 14 15  2  0
 15 16  1  0
 16 17  2  0
 17 18  1  0
 18 19  1  0
 19 20  2  0
 20 21  1  0
 21 22  2  0
 22 23  1  0
 23 24  2  0
 17 25  1  0
 25 26  2  0
 10 27  2  0
  5 28  1  0
 28  2  1  0
 27  6  1  0
 26 14  1  0
 24 19  1  0
  3 29  1  0
  3 30  1  0
  4 31  1  0
  4 32  1  0
  5 33  1  6
  7 34  1  0
  8 35  1  0
  9 36  1  0
 11 37  1  0
 15 38  1  0
 16 39  1  0
 20 40  1  0
 21 41  1  0
 22 42  1  0
 23 43  1  0
 24 44  1  0
 25 45  1  0
 27 46  1  0
 28 47  1  0
M  END
>  <meeko>  (4) 
{"is_sidechain": [false], "free_energy": -8.215, "intermolecular_energy": -10.585, "internal_energy": -0.892}

$$$$
ligand_19_conformer_1_docked
     RDKit          3D

 47 50  0  0  0  0  0  0  0  0999 V2000
   -0.3120   49.0600   60.9330 O   0  0  0  0  0  0  0  0  0  0  0  0
   -1.1820   48.5270   60.1960 C   0  0  0  0  0  0  0  0  0  0  0  0
   -2.4320   47.9260   60.6970 C   0  0  0  0  0  0  0  0  0  0  0  0
   -3.1520   47.4780   59.4140 C   0  0  0  0  0  0  0  0  0  0  0  0
   -2.2080   47.7890   58.2230 C   0  0  2  0  0  0  0  0  0  0  0  0
   -1.8020   46.5370   57.4780 C   0  0  0  0  0  0  0  0  0  0  0  0
   -2.6850   45.4480   57.3660 C   0  0  0  0  0  0  0  0  0  0  0  0
   -2.3120   44.3080   56.6510 C   0  0  0  0  0  0  0  0  0  0  0  0
   -1.0570   44.2390   56.0420 C   0  0  0  0  0  0  0  0  0  0  0  0
   -0.1570   45.3130   56.1500 C   0  0  0  0  0  0  0  0  0  0  0  0
    1.1260   45.2840   55.5000 N   0  0  0  0  0  0  0  0  0  0  0  0
    1.3080   45.0450   54.0940 C   0  0  0  0  0  0  0  0  0  0  0  0
    0.3710   44.5460   53.4130 O   0  0  0  0  0  0  0  0  0  0  0  0
    2.6030   45.3500   53.4480 C   0  0  0  0  0  0  0  0  0  0  0  0
    2.8700   46.6240   52.9200 C   0  0  0  0  0  0  0  0  0  0  0  0
    4.1050   46.8760   52.3210 C   0  0  0  0  0  0  0  0  0  0  0  0
    5.0760   45.8720   52.2630 C   0  0  0  0  0  0  0  0  0  0  0  0
    6.3030   46.1480   51.6430 O   0  0  0  0  0  0  0  0  0  0  0  0
    7.4980   46.4600   52.3090 C   0  0  0  0  0  0  0  0  0  0  0  0
    8.7070   46.3590   51.6090 C   0  0  0  0  0  0  0  0  0  0  0  0
    9.9160   46.6780   52.2350 C   0  0  0  0  0  0  0  0  0  0  0  0
    9.9230   47.1150   53.5630 C   0  0  0  0  0  0  0  0  0  0  0  0
    8.7210   47.2360   54.2650 C   0  0  0  0  0  0  0  0  0  0  0  0
    7.5090   46.9170   53.6410 C   0  0  0  0  0  0  0  0  0  0  0  0
    4.7680   44.6060   52.7860 C   0  0  0  0  0  0  0  0  0  0  0  0
    3.5570   44.3810   53.3600 N   0  0  0  0  0  0  0  0  0  0  0  0
   -0.5450   46.4650   56.8530 C   0  0  0  0  0  0  0  0  0  0  0  0
   -1.0450   48.4410   58.7950 N   0  0  0  0  0  0  0  0  0  0  0  0
   -2.2212   47.0666   61.3505 H   0  0  0  0  0  0  0  0  0  0  0  0
   -3.0297   48.6220   61.3039 H   0  0  0  0  0  0  0  0  0  0  0  0
   -3.3611   46.3989   59.4569 H   0  0  0  0  0  0  0  0  0  0  0  0
   -4.1099   48.0065   59.3001 H   0  0  0  0  0  0  0  0  0  0  0  0
   -2.7166   48.4270   57.4852 H   0  0  0  0  0  0  0  0  0  0  0  0
   -3.6746   45.4946   57.8441 H   0  0  0  0  0  0  0  0  0  0  0  0
   -3.0091   43.4613   56.5671 H   0  0  0  0  0  0  0  0  0  0  0  0
   -0.7718   43.3403   55.4755 H   0  0  0  0  0  0  0  0  0  0  0  0
    1.9770   45.3590   56.1020 H   0  0  0  0  0  0  0  0  0  0  0  0
    2.1107   47.4177   52.9783 H   0  0  0  0  0  0  0  0  0  0  0  0
    4.3150   47.8674   51.8933 H   0  0  0  0  0  0  0  0  0  0  0  0
    8.7054   46.0267   50.5604 H   0  0  0  0  0  0  0  0  0  0  0  0
   10.8624   46.5850   51.6821 H   0  0  0  0  0  0  0  0  0  0  0  0
   10.8748   47.3636   54.0552 H   0  0  0  0  0  0  0  0  0  0  0  0
    8.7270   47.5823   55.3091 H   0  0  0  0  0  0  0  0  0  0  0  0
    6.5632   47.0236   54.1924 H   0  0  0  0  0  0  0  0  0  0  0  0
    5.5086   43.7945   52.7310 H   0  0  0  0  0  0  0  0  0  0  0  0
    0.1428   47.3212   56.9153 H   0  0  0  0  0  0  0  0  0  0  0  0
   -0.2370   48.8170   58.2490 H   0  0  0  0  0  0  0  0  0  0  0  0
  1  2  2  0
  2  3  1  0
  3  4  1  0
  4  5  1  0
  5  6  1  0
  6  7  2  0
  7  8  1  0
  8  9  2  0
  9 10  1  0
 10 11  1  0
 11 12  1  0
 12 13  2  0
 12 14  1  0
 14 15  2  0
 15 16  1  0
 16 17  2  0
 17 18  1  0
 18 19  1  0
 19 20  2  0
 20 21  1  0
 21 22  2  0
 22 23  1  0
 23 24  2  0
 17 25  1  0
 25 26  2  0
 10 27  2  0
  5 28  1  0
 28  2  1  0
 27  6  1  0
 26 14  1  0
 24 19  1  0
  3 29  1  0
  3 30  1  0
  4 31  1  0
  4 32  1  0
  5 33  1  6
  7 34  1  0
  8 35  1  0
  9 36  1  0
 11 37  1  0
 15 38  1  0
 16 39  1  0
 20 40  1  0
 21 41  1  0
 22 42  1  0
 23 43  1  0
 24 44  1  0
 25 45  1  0
 27 46  1  0
 28 47  1  0
M  END
>  <meeko>  (5) 
{"is_sidechain": [false], "free_energy": -8.179, "intermolecular_energy": -10.904, "internal_energy": -0.527}

$$$$
