MODEL 1
REMARK VINA RESULT:    -9.212      0.000      0.000
REMARK INTER + INTRA:         -12.539
REMARK INTER:                 -11.905
REMARK INTRA:                  -0.634
REMARK UNBOUND:                -0.634
REMARK SMILES O=C1CC[C@H](c2cccc(NC(=O)c3ccc(Oc4ccccc4)cn3)c2)N1
REMARK SMILES IDX 13 1 12 2 11 3 14 5 15 6 26 7 16 8 25 9 17 10 18 11 19 12
REMARK SMILES IDX 20 13 24 14 21 15 23 16 22 17 10 18 9 19 27 20 8 21 6 22
REMARK SMILES IDX 7 23 5 24 4 25 28 26 3 27 2 28 1 29
REMARK H PARENT 11 4 28 30
ROOT
ATOM      1  O   UNL     1       4.966  44.244  53.765  1.00  0.00    -0.267 OA
ATOM      2  C   UNL     1       4.061  44.316  52.888  1.00  0.00     0.274 C 
ATOM      3  N   UNL     1       4.380  44.769  51.561  1.00  0.00    -0.321 N 
ATOM      4  H   UNL     1       3.608  45.170  50.981  1.00  0.00     0.170 HD
ENDROOT
BRANCH   2   5
ATOM      5  C   UNL     1       2.666  43.976  53.244  1.00  0.00     0.128 A 
ATOM      6  C   UNL     1       1.936  43.034  52.498  1.00  0.00     0.038 A 
ATOM      7  N   UNL     1       2.072  44.585  54.306  1.00  0.00    -0.247 NA
ATOM      8  C   UNL     1       0.624  42.735  52.865  1.00  0.00     0.051 A 
ATOM      9  C   UNL     1       0.794  44.313  54.678  1.00  0.00     0.159 A 
ATOM     10  C   UNL     1       0.041  43.369  53.975  1.00  0.00     0.145 A 
BRANCH  10  11
ATOM     11  O   UNL     1      -1.281  43.115  54.372  1.00  0.00    -0.456 OA
BRANCH  11  12
ATOM     12  C   UNL     1      -2.059  43.962  55.172  1.00  0.00     0.127 A 
ATOM     13  C   UNL     1      -2.166  43.774  56.562  1.00  0.00     0.047 A 
ATOM     14  C   UNL     1      -2.708  45.050  54.576  1.00  0.00     0.047 A 
ATOM     15  C   UNL     1      -2.943  44.647  57.331  1.00  0.00     0.004 A 
ATOM     16  C   UNL     1      -3.486  45.917  55.347  1.00  0.00     0.004 A 
ATOM     17  C   UNL     1      -3.608  45.714  56.723  1.00  0.00     0.000 A 
ENDBRANCH  11  12
ENDBRANCH  10  11
ENDBRANCH   2   5
BRANCH   3  18
ATOM     18  C   UNL     1       5.709  44.798  51.011  1.00  0.00     0.041 A 
ATOM     19  C   UNL     1       6.093  43.812  50.092  1.00  0.00     0.026 A 
ATOM     20  C   UNL     1       6.653  45.763  51.411  1.00  0.00     0.032 A 
ATOM     21  C   UNL     1       7.380  43.808  49.551  1.00  0.00     0.003 A 
ATOM     22  C   UNL     1       7.959  45.754  50.884  1.00  0.00    -0.024 A 
ATOM     23  C   UNL     1       8.306  44.779  49.936  1.00  0.00     0.006 A 
BRANCH  22  24
ATOM     24  C   UNL     1       8.966  46.829  51.245  1.00  0.00     0.113 C 
ATOM     25  C   UNL     1       8.266  48.076  51.842  1.00  0.00     0.040 C 
ATOM     26  N   UNL     1       9.888  46.369  52.273  1.00  0.00    -0.349 N 
ATOM     27  C   UNL     1       8.601  48.105  53.342  1.00  0.00     0.102 C 
ATOM     28  C   UNL     1       9.668  47.091  53.464  1.00  0.00     0.220 C 
ATOM     29  O   UNL     1      10.292  46.853  54.534  1.00  0.00    -0.275 OA
ATOM     30  H   UNL     1      10.547  45.563  52.177  1.00  0.00     0.164 HD
ENDBRANCH  22  24
ENDBRANCH   3  18
TORSDOF 5
ENDMDL
MODEL 2
REMARK VINA RESULT:    -9.124      2.052      2.342
REMARK INTER + INTRA:         -12.425
REMARK INTER:                 -11.630
REMARK INTRA:                  -0.795
REMARK UNBOUND:                -0.634
REMARK SMILES O=C1CC[C@H](c2cccc(NC(=O)c3ccc(Oc4ccccc4)cn3)c2)N1
REMARK SMILES IDX 13 1 12 2 11 3 14 5 15 6 26 7 16 8 25 9 17 10 18 11 19 12
REMARK SMILES IDX 20 13 24 14 21 15 23 16 22 17 10 18 9 19 27 20 8 21 6 22
REMARK SMILES IDX 7 23 5 24 4 25 28 26 3 27 2 28 1 29
REMARK H PARENT 11 4 28 30
ROOT
ATOM      1  O   UNL     1       2.854  45.588  51.460  1.00  0.00    -0.267 OA
ATOM      2  C   UNL     1       3.189  45.089  52.569  1.00  0.00     0.274 C 
ATOM      3  N   UNL     1       4.469  44.450  52.713  1.00  0.00    -0.321 N 
ATOM      4  H   UNL     1       4.580  43.742  53.473  1.00  0.00     0.170 HD
ENDROOT
BRANCH   2   5
ATOM      5  C   UNL     1       2.241  45.123  53.705  1.00  0.00     0.128 A 
ATOM      6  C   UNL     1       0.875  44.852  53.518  1.00  0.00     0.038 A 
ATOM      7  N   UNL     1       2.693  45.426  54.952  1.00  0.00    -0.247 NA
ATOM      8  C   UNL     1       0.011  44.890  54.612  1.00  0.00     0.051 A 
ATOM      9  C   UNL     1       1.869  45.474  56.031  1.00  0.00     0.159 A 
ATOM     10  C   UNL     1       0.507  45.192  55.891  1.00  0.00     0.145 A 
BRANCH  10  11
ATOM     11  O   UNL     1      -0.326  45.260  57.019  1.00  0.00    -0.456 OA
BRANCH  11  12
ATOM     12  C   UNL     1      -0.794  46.443  57.605  1.00  0.00     0.127 A 
ATOM     13  C   UNL     1      -0.072  47.107  58.613  1.00  0.00     0.047 A 
ATOM     14  C   UNL     1      -1.991  47.002  57.138  1.00  0.00     0.047 A 
ATOM     15  C   UNL     1      -0.567  48.293  59.167  1.00  0.00     0.004 A 
ATOM     16  C   UNL     1      -2.483  48.184  57.697  1.00  0.00     0.004 A 
ATOM     17  C   UNL     1      -1.775  48.828  58.714  1.00  0.00     0.000 A 
ENDBRANCH  11  12
ENDBRANCH  10  11
ENDBRANCH   2   5
BRANCH   3  18
ATOM     18  C   UNL     1       5.578  44.646  51.819  1.00  0.00     0.041 A 
ATOM     19  C   UNL     1       5.707  43.820  50.694  1.00  0.00     0.026 A 
ATOM     20  C   UNL     1       6.568  45.616  52.071  1.00  0.00     0.032 A 
ATOM     21  C   UNL     1       6.781  43.979  49.815  1.00  0.00     0.003 A 
ATOM     22  C   UNL     1       7.663  45.770  51.199  1.00  0.00    -0.024 A 
ATOM     23  C   UNL     1       7.749  44.955  50.059  1.00  0.00     0.006 A 
BRANCH  22  24
ATOM     24  C   UNL     1       8.698  46.858  51.412  1.00  0.00     0.113 C 
ATOM     25  C   UNL     1       8.060  48.126  52.032  1.00  0.00     0.040 C 
ATOM     26  N   UNL     1       9.724  46.437  52.354  1.00  0.00    -0.349 N 
ATOM     27  C   UNL     1       8.549  48.211  53.487  1.00  0.00     0.102 C 
ATOM     28  C   UNL     1       9.627  47.203  53.535  1.00  0.00     0.220 C 
ATOM     29  O   UNL     1      10.360  47.005  54.541  1.00  0.00    -0.275 OA
ATOM     30  H   UNL     1      10.373  45.627  52.220  1.00  0.00     0.164 HD
ENDBRANCH  22  24
ENDBRANCH   3  18
TORSDOF 5
ENDMDL
MODEL 3
REMARK VINA RESULT:    -9.035      2.347      9.703
REMARK INTER + INTRA:         -12.310
REMARK INTER:                 -11.400
REMARK INTRA:                  -0.910
REMARK UNBOUND:                -0.634
REMARK SMILES O=C1CC[C@H](c2cccc(NC(=O)c3ccc(Oc4ccccc4)cn3)c2)N1
REMARK SMILES IDX 13 1 12 2 11 3 14 5 15 6 26 7 16 8 25 9 17 10 18 11 19 12
REMARK SMILES IDX 20 13 24 14 21 15 23 16 22 17 10 18 9 19 27 20 8 21 6 22
REMARK SMILES IDX 7 23 5 24 4 25 28 26 3 27 2 28 1 29
REMARK H PARENT 11 4 28 30
ROOT
ATOM      1  O   UNL     1       1.811  42.673  52.613  1.00  0.00    -0.267 OA
ATOM      2  C   UNL     1       1.892  43.675  51.849  1.00  0.00     0.274 C 
ATOM      3  N   UNL     1       0.697  44.270  51.315  1.00  0.00    -0.321 N 
ATOM      4  H   UNL     1       0.778  44.823  50.432  1.00  0.00     0.170 HD
ENDROOT
BRANCH   2   5
ATOM      5  C   UNL     1       3.221  44.202  51.470  1.00  0.00     0.128 A 
ATOM      6  C   UNL     1       3.391  45.550  51.110  1.00  0.00     0.038 A 
ATOM      7  N   UNL     1       4.300  43.373  51.463  1.00  0.00    -0.247 NA
ATOM      8  C   UNL     1       4.659  46.015  50.763  1.00  0.00     0.051 A 
ATOM      9  C   UNL     1       5.543  43.802  51.122  1.00  0.00     0.159 A 
ATOM     10  C   UNL     1       5.758  45.140  50.777  1.00  0.00     0.145 A 
BRANCH  10  11
ATOM     11  O   UNL     1       7.049  45.555  50.417  1.00  0.00    -0.456 OA
BRANCH  11  12
ATOM     12  C   UNL     1       7.997  46.093  51.298  1.00  0.00     0.127 A 
ATOM     13  C   UNL     1       7.632  46.984  52.323  1.00  0.00     0.047 A 
ATOM     14  C   UNL     1       9.334  45.694  51.180  1.00  0.00     0.047 A 
ATOM     15  C   UNL     1       8.605  47.493  53.191  1.00  0.00     0.004 A 
ATOM     16  C   UNL     1      10.303  46.207  52.046  1.00  0.00     0.004 A 
ATOM     17  C   UNL     1       9.941  47.110  53.049  1.00  0.00     0.000 A 
ENDBRANCH  11  12
ENDBRANCH  10  11
ENDBRANCH   2   5
BRANCH   3  18
ATOM     18  C   UNL     1      -0.620  44.075  51.860  1.00  0.00     0.041 A 
ATOM     19  C   UNL     1      -1.546  43.296  51.152  1.00  0.00     0.026 A 
ATOM     20  C   UNL     1      -1.021  44.688  53.062  1.00  0.00     0.032 A 
ATOM     21  C   UNL     1      -2.836  43.099  51.650  1.00  0.00     0.003 A 
ATOM     22  C   UNL     1      -2.325  44.508  53.562  1.00  0.00    -0.024 A 
ATOM     23  C   UNL     1      -3.221  43.693  52.853  1.00  0.00     0.006 A 
BRANCH  22  24
ATOM     24  C   UNL     1      -2.751  45.098  54.893  1.00  0.00     0.113 C 
ATOM     25  C   UNL     1      -3.339  44.011  55.826  1.00  0.00     0.040 C 
ATOM     26  N   UNL     1      -1.617  45.659  55.612  1.00  0.00    -0.349 N 
ATOM     27  C   UNL     1      -2.311  43.774  56.944  1.00  0.00     0.102 C 
ATOM     28  C   UNL     1      -1.366  44.895  56.771  1.00  0.00     0.220 C 
ATOM     29  O   UNL     1      -0.401  45.127  57.547  1.00  0.00    -0.275 OA
ATOM     30  H   UNL     1      -1.017  46.447  55.275  1.00  0.00     0.164 HD
ENDBRANCH  22  24
ENDBRANCH   3  18
TORSDOF 5
ENDMDL
MODEL 4
REMARK VINA RESULT:    -8.386      5.151      9.043
REMARK INTER + INTRA:         -11.471
REMARK INTER:                 -10.622
REMARK INTRA:                  -0.850
REMARK UNBOUND:                -0.634
REMARK SMILES O=C1CC[C@H](c2cccc(NC(=O)c3ccc(Oc4ccccc4)cn3)c2)N1
REMARK SMILES IDX 13 1 12 2 11 3 14 5 15 6 26 7 16 8 25 9 17 10 18 11 19 12
REMARK SMILES IDX 20 13 24 14 21 15 23 16 22 17 10 18 9 19 27 20 8 21 6 22
REMARK SMILES IDX 7 23 5 24 4 25 28 26 3 27 2 28 1 29
REMARK H PARENT 11 4 28 30
ROOT
ATOM      1  O   UNL     1       6.518  41.666  50.382  1.00  0.00    -0.267 OA
ATOM      2  C   UNL     1       5.518  42.164  49.793  1.00  0.00     0.274 C 
ATOM      3  N   UNL     1       4.750  43.199  50.430  1.00  0.00    -0.321 N 
ATOM      4  H   UNL     1       3.759  43.331  50.127  1.00  0.00     0.170 HD
ENDROOT
BRANCH   2   5
ATOM      5  C   UNL     1       5.115  41.646  48.468  1.00  0.00     0.128 A 
ATOM      6  C   UNL     1       5.774  42.058  47.297  1.00  0.00     0.038 A 
ATOM      7  N   UNL     1       4.087  40.759  48.374  1.00  0.00    -0.247 NA
ATOM      8  C   UNL     1       5.369  41.546  46.064  1.00  0.00     0.051 A 
ATOM      9  C   UNL     1       3.673  40.251  47.183  1.00  0.00     0.159 A 
ATOM     10  C   UNL     1       4.314  40.621  45.997  1.00  0.00     0.145 A 
BRANCH  10  11
ATOM     11  O   UNL     1       3.859  40.091  44.780  1.00  0.00    -0.456 OA
BRANCH  11  12
ATOM     12  C   UNL     1       4.577  39.202  43.970  1.00  0.00     0.127 A 
ATOM     13  C   UNL     1       4.246  37.836  43.897  1.00  0.00     0.047 A 
ATOM     14  C   UNL     1       5.620  39.697  43.178  1.00  0.00     0.047 A 
ATOM     15  C   UNL     1       4.979  36.979  43.069  1.00  0.00     0.004 A 
ATOM     16  C   UNL     1       6.351  38.837  42.355  1.00  0.00     0.004 A 
ATOM     17  C   UNL     1       6.035  37.478  42.303  1.00  0.00     0.000 A 
ENDBRANCH  11  12
ENDBRANCH  10  11
ENDBRANCH   2   5
BRANCH   3  18
ATOM     18  C   UNL     1       5.223  44.002  51.527  1.00  0.00     0.041 A 
ATOM     19  C   UNL     1       4.753  43.740  52.821  1.00  0.00     0.026 A 
ATOM     20  C   UNL     1       6.109  45.078  51.327  1.00  0.00     0.032 A 
ATOM     21  C   UNL     1       5.184  44.511  53.902  1.00  0.00     0.003 A 
ATOM     22  C   UNL     1       6.535  45.871  52.410  1.00  0.00    -0.024 A 
ATOM     23  C   UNL     1       6.078  45.564  53.701  1.00  0.00     0.006 A 
BRANCH  22  24
ATOM     24  C   UNL     1       7.547  46.985  52.226  1.00  0.00     0.113 C 
ATOM     25  C   UNL     1       8.228  47.353  53.567  1.00  0.00     0.040 C 
ATOM     26  N   UNL     1       8.626  46.581  51.337  1.00  0.00    -0.349 N 
ATOM     27  C   UNL     1       9.676  46.842  53.490  1.00  0.00     0.102 C 
ATOM     28  C   UNL     1       9.830  46.492  52.064  1.00  0.00     0.220 C 
ATOM     29  O   UNL     1      10.914  46.104  51.549  1.00  0.00    -0.275 OA
ATOM     30  H   UNL     1       8.512  46.304  50.334  1.00  0.00     0.164 HD
ENDBRANCH  22  24
ENDBRANCH   3  18
TORSDOF 5
ENDMDL
MODEL 5
REMARK VINA RESULT:    -8.268      3.037     10.194
REMARK INTER + INTRA:         -11.319
REMARK INTER:                 -10.309
REMARK INTRA:                  -1.011
REMARK UNBOUND:                -0.634
REMARK SMILES O=C1CC[C@H](c2cccc(NC(=O)c3ccc(Oc4ccccc4)cn3)c2)N1
REMARK SMILES IDX 13 1 12 2 11 3 14 5 15 6 26 7 16 8 25 9 17 10 18 11 19 12
REMARK SMILES IDX 20 13 24 14 21 15 23 16 22 17 10 18 9 19 27 20 8 21 6 22
REMARK SMILES IDX 7 23 5 24 4 25 28 26 3 27 2 28 1 29
REMARK H PARENT 11 4 28 30
ROOT
ATOM      1  O   UNL     1       2.013  44.582  56.302  1.00  0.00    -0.267 OA
ATOM      2  C   UNL     1       1.759  45.161  55.209  1.00  0.00     0.274 C 
ATOM      3  N   UNL     1       0.396  45.411  54.828  1.00  0.00    -0.321 N 
ATOM      4  H   UNL     1       0.186  45.534  53.812  1.00  0.00     0.170 HD
ENDROOT
BRANCH   2   5
ATOM      5  C   UNL     1       2.867  45.536  54.304  1.00  0.00     0.128 A 
ATOM      6  C   UNL     1       3.936  44.656  54.060  1.00  0.00     0.038 A 
ATOM      7  N   UNL     1       2.861  46.755  53.697  1.00  0.00    -0.247 NA
ATOM      8  C   UNL     1       4.961  45.042  53.198  1.00  0.00     0.051 A 
ATOM      9  C   UNL     1       3.851  47.153  52.858  1.00  0.00     0.159 A 
ATOM     10  C   UNL     1       4.922  46.300  52.575  1.00  0.00     0.145 A 
BRANCH  10  11
ATOM     11  O   UNL     1       5.939  46.741  51.713  1.00  0.00    -0.456 OA
BRANCH  11  12
ATOM     12  C   UNL     1       7.305  46.756  52.022  1.00  0.00     0.127 A 
ATOM     13  C   UNL     1       8.243  46.030  51.265  1.00  0.00     0.047 A 
ATOM     14  C   UNL     1       7.751  47.552  53.083  1.00  0.00     0.047 A 
ATOM     15  C   UNL     1       9.601  46.077  51.595  1.00  0.00     0.004 A 
ATOM     16  C   UNL     1       9.109  47.595  53.413  1.00  0.00     0.004 A 
ATOM     17  C   UNL     1      10.034  46.854  52.673  1.00  0.00     0.000 A 
ENDBRANCH  11  12
ENDBRANCH  10  11
ENDBRANCH   2   5
BRANCH   3  18
ATOM     18  C   UNL     1      -0.715  45.407  55.741  1.00  0.00     0.041 A 
ATOM     19  C   UNL     1      -1.465  44.233  55.904  1.00  0.00     0.026 A 
ATOM     20  C   UNL     1      -1.102  46.566  56.441  1.00  0.00     0.032 A 
ATOM     21  C   UNL     1      -2.557  44.203  56.774  1.00  0.00     0.003 A 
ATOM     22  C   UNL     1      -2.213  46.548  57.306  1.00  0.00    -0.024 A 
ATOM     23  C   UNL     1      -2.924  45.351  57.480  1.00  0.00     0.006 A 
BRANCH  22  24
ATOM     24  C   UNL     1      -2.599  47.765  58.125  1.00  0.00     0.113 C 
ATOM     25  C   UNL     1      -3.345  47.359  59.419  1.00  0.00     0.040 C 
ATOM     26  N   UNL     1      -1.424  48.503  58.566  1.00  0.00    -0.349 N 
ATOM     27  C   UNL     1      -2.387  47.621  60.592  1.00  0.00     0.102 C 
ATOM     28  C   UNL     1      -1.304  48.407  59.968  1.00  0.00     0.220 C 
ATOM     29  O   UNL     1      -0.338  48.907  60.607  1.00  0.00    -0.275 OA
ATOM     30  H   UNL     1      -0.720  48.953  57.936  1.00  0.00     0.164 HD
ENDBRANCH  22  24
ENDBRANCH   3  18
TORSDOF 5
ENDMDL
