ligand_69_conformer_1_docked
     RDKit          3D

 43 46  0  0  0  0  0  0  0  0999 V2000
   -1.7270   42.8890   51.9790 C   0  0  0  0  0  0  0  0  0  0  0  0
   -0.3640   43.4040   52.0540 N   0  0  0  0  0  0  0  0  0  0  0  0
    0.8290   42.5820   52.0980 C   0  0  0  0  0  0  0  0  0  0  0  0
    2.0100   43.5670   52.0800 C   0  0  0  0  0  0  0  0  0  0  0  0
    1.4390   44.9700   52.4510 C   0  0  0  0  0  0  0  0  0  0  0  0
    1.7290   45.3280   53.9420 C   0  0  0  0  0  0  0  0  0  0  0  0
    2.9870   46.2000   54.1210 C   0  0  0  0  0  0  0  0  0  0  0  0
    3.9390   45.9750   53.0270 N   0  0  0  0  0  0  0  0  0  0  0  0
    5.1760   45.2790   53.2770 C   0  0  0  0  0  0  0  0  0  0  0  0
    5.2310   44.4240   54.2000 O   0  0  0  0  0  0  0  0  0  0  0  0
    6.3870   45.5410   52.4710 C   0  0  0  0  0  0  0  0  0  0  0  0
    6.5680   45.2400   51.1240 C   0  0  0  0  0  0  0  0  0  0  0  0
    7.8340   45.6940   50.7660 C   0  0  0  0  0  0  0  0  0  0  0  0
    8.3640   46.2590   51.9070 C   0  0  0  0  0  0  0  0  0  0  0  0
    9.6010   46.8630   52.0950 C   0  0  0  0  0  0  0  0  0  0  0  0
    9.8880   47.3610   53.3750 C   0  0  0  0  0  0  0  0  0  0  0  0
    8.9330   47.2340   54.4020 C   0  0  0  0  0  0  0  0  0  0  0  0
    7.7390   46.6300   54.1450 N   0  0  0  0  0  0  0  0  0  0  0  0
    7.4900   46.1690   52.9200 N   0  0  0  0  0  0  0  0  0  0  0  0
    3.4970   46.2420   51.6490 C   0  0  0  0  0  0  0  0  0  0  0  0
    1.9720   46.0740   51.5050 C   0  0  0  0  0  0  0  0  0  0  0  0
   -0.0240   44.7600   52.2570 C   0  0  0  0  0  0  0  0  0  0  0  0
   -0.8830   45.6820   52.3000 O   0  0  0  0  0  0  0  0  0  0  0  0
   -2.1194   42.7407   52.9959 H   0  0  0  0  0  0  0  0  0  0  0  0
   -2.3621   43.6092   51.4423 H   0  0  0  0  0  0  0  0  0  0  0  0
   -1.7272   41.9288   51.4423 H   0  0  0  0  0  0  0  0  0  0  0  0
    0.8460   41.9787   53.0176 H   0  0  0  0  0  0  0  0  0  0  0  0
    0.8713   41.8799   51.2523 H   0  0  0  0  0  0  0  0  0  0  0  0
    2.7683   43.2611   52.8158 H   0  0  0  0  0  0  0  0  0  0  0  0
    2.4892   43.5874   51.0901 H   0  0  0  0  0  0  0  0  0  0  0  0
    0.8639   45.8747   54.3454 H   0  0  0  0  0  0  0  0  0  0  0  0
    1.9058   44.3836   54.4775 H   0  0  0  0  0  0  0  0  0  0  0  0
    2.6925   47.2598   54.1301 H   0  0  0  0  0  0  0  0  0  0  0  0
    3.4714   45.9282   55.0705 H   0  0  0  0  0  0  0  0  0  0  0  0
    5.8450   44.7369   50.4651 H   0  0  0  0  0  0  0  0  0  0  0  0
    8.3124   45.6180   49.7784 H   0  0  0  0  0  0  0  0  0  0  0  0
   10.3268   46.9475   51.2728 H   0  0  0  0  0  0  0  0  0  0  0  0
   10.8538   47.8480   53.5751 H   0  0  0  0  0  0  0  0  0  0  0  0
    9.1502   47.6211   55.4084 H   0  0  0  0  0  0  0  0  0  0  0  0
    3.7706   47.2726   51.3788 H   0  0  0  0  0  0  0  0  0  0  0  0
    3.9894   45.5195   50.9815 H   0  0  0  0  0  0  0  0  0  0  0  0
    1.4810   47.0267   51.7527 H   0  0  0  0  0  0  0  0  0  0  0  0
    1.7499   45.7816   50.4681 H   0  0  0  0  0  0  0  0  0  0  0  0
  1  2  1  0
  2  3  1  0
  3  4  1  0
  4  5  1  0
  5  6  1  0
  6  7  1  0
  7  8  1  0
  8  9  1  0
  9 10  2  0
  9 11  1  0
 11 12  2  0
 12 13  1  0
 13 14  2  0
 14 15  1  0
 15 16  2  0
 16 17  1  0
 17 18  2  0
 18 19  1  0
  8 20  1  0
 20 21  1  0
  5 22  1  0
 22 23  2  0
 22  2  1  0
 21  5  1  0
 19 11  1  0
 19 14  1  0
  1 24  1  0
  1 25  1  0
  1 26  1  0
  3 27  1  0
  3 28  1  0
  4 29  1  0
  4 30  1  0
  6 31  1  0
  6 32  1  0
  7 33  1  0
  7 34  1  0
 12 35  1  0
 13 36  1  0
 15 37  1  0
 16 38  1  0
 17 39  1  0
 20 40  1  0
 20 41  1  0
 21 42  1  0
 21 43  1  0
M  END
>  <meeko>  (1) 
{"is_sidechain": [false], "free_energy": -8.856, "intermolecular_energy": -9.373, "internal_energy": -0.088}

$$$$
ligand_69_conformer_1_docked
     RDKit          3D

 43 46  0  0  0  0  0  0  0  0999 V2000
   -0.4020   42.0610   52.9270 C   0  0  0  0  0  0  0  0  0  0  0  0
    0.8260   42.8480   52.9310 N   0  0  0  0  0  0  0  0  0  0  0  0
    1.2300   43.7450   53.9960 C   0  0  0  0  0  0  0  0  0  0  0  0
    2.6200   44.2670   53.5910 C   0  0  0  0  0  0  0  0  0  0  0  0
    2.7950   43.9650   52.0710 C   0  0  0  0  0  0  0  0  0  0  0  0
    2.5450   45.2380   51.2040 C   0  0  0  0  0  0  0  0  0  0  0  0
    3.8430   45.9790   50.8300 C   0  0  0  0  0  0  0  0  0  0  0  0
    4.8890   45.7390   51.8310 N   0  0  0  0  0  0  0  0  0  0  0  0
    5.3030   46.8000   52.7140 C   0  0  0  0  0  0  0  0  0  0  0  0
    4.4810   47.7050   53.0250 O   0  0  0  0  0  0  0  0  0  0  0  0
    6.6710   46.8540   53.2710 C   0  0  0  0  0  0  0  0  0  0  0  0
    7.0200   47.1520   54.5840 C   0  0  0  0  0  0  0  0  0  0  0  0
    8.4050   47.0490   54.6770 C   0  0  0  0  0  0  0  0  0  0  0  0
    8.8370   46.6850   53.4180 C   0  0  0  0  0  0  0  0  0  0  0  0
   10.1290   46.4470   52.9680 C   0  0  0  0  0  0  0  0  0  0  0  0
   10.2860   46.0850   51.6220 C   0  0  0  0  0  0  0  0  0  0  0  0
    9.1540   45.9780   50.7920 C   0  0  0  0  0  0  0  0  0  0  0  0
    7.9150   46.2260   51.3020 N   0  0  0  0  0  0  0  0  0  0  0  0
    7.7930   46.5650   52.5850 N   0  0  0  0  0  0  0  0  0  0  0  0
    5.3140   44.3520   52.0790 C   0  0  0  0  0  0  0  0  0  0  0  0
    4.1840   43.3530   51.7650 C   0  0  0  0  0  0  0  0  0  0  0  0
    1.7090   42.9710   51.8350 C   0  0  0  0  0  0  0  0  0  0  0  0
    1.5610   42.3260   50.7620 O   0  0  0  0  0  0  0  0  0  0  0  0
   -0.7131   41.8616   53.9631 H   0  0  0  0  0  0  0  0  0  0  0  0
   -1.1941   42.6201   52.4074 H   0  0  0  0  0  0  0  0  0  0  0  0
   -0.2249   41.1077   52.4074 H   0  0  0  0  0  0  0  0  0  0  0  0
    0.5181   44.5786   54.0869 H   0  0  0  0  0  0  0  0  0  0  0  0
    1.2542   43.2355   54.9706 H   0  0  0  0  0  0  0  0  0  0  0  0
    2.6839   45.3503   53.7708 H   0  0  0  0  0  0  0  0  0  0  0  0
    3.4098   43.7798   54.1816 H   0  0  0  0  0  0  0  0  0  0  0  0
    2.0350   44.9359   50.2774 H   0  0  0  0  0  0  0  0  0  0  0  0
    1.9342   45.9287   51.8039 H   0  0  0  0  0  0  0  0  0  0  0  0
    4.1928   45.6211   49.8504 H   0  0  0  0  0  0  0  0  0  0  0  0
    3.6335   47.0582   50.7918 H   0  0  0  0  0  0  0  0  0  0  0  0
    6.3298   47.4194   55.3977 H   0  0  0  0  0  0  0  0  0  0  0  0
    9.0259   47.2218   55.5684 H   0  0  0  0  0  0  0  0  0  0  0  0
   10.9948   46.5387   53.6403 H   0  0  0  0  0  0  0  0  0  0  0  0
   11.2890   45.8856   51.2168 H   0  0  0  0  0  0  0  0  0  0  0  0
    9.2693   45.6951   49.7353 H   0  0  0  0  0  0  0  0  0  0  0  0
    6.1808   44.1239   51.4413 H   0  0  0  0  0  0  0  0  0  0  0  0
    5.5758   44.2552   53.1430 H   0  0  0  0  0  0  0  0  0  0  0  0
    4.2301   43.0822   50.6998 H   0  0  0  0  0  0  0  0  0  0  0  0
    4.3198   42.4633   52.3974 H   0  0  0  0  0  0  0  0  0  0  0  0
  1  2  1  0
  2  3  1  0
  3  4  1  0
  4  5  1  0
  5  6  1  0
  6  7  1  0
  7  8  1  0
  8  9  1  0
  9 10  2  0
  9 11  1  0
 11 12  2  0
 12 13  1  0
 13 14  2  0
 14 15  1  0
 15 16  2  0
 16 17  1  0
 17 18  2  0
 18 19  1  0
  8 20  1  0
 20 21  1  0
  5 22  1  0
 22 23  2  0
 22  2  1  0
 21  5  1  0
 19 11  1  0
 19 14  1  0
  1 24  1  0
  1 25  1  0
  1 26  1  0
  3 27  1  0
  3 28  1  0
  4 29  1  0
  4 30  1  0
  6 31  1  0
  6 32  1  0
  7 33  1  0
  7 34  1  0
 12 35  1  0
 13 36  1  0
 15 37  1  0
 16 38  1  0
 17 39  1  0
 20 40  1  0
 20 41  1  0
 21 42  1  0
 21 43  1  0
M  END
>  <meeko>  (2) 
{"is_sidechain": [false], "free_energy": -8.804, "intermolecular_energy": -9.445, "internal_energy": 0.039}

$$$$
ligand_69_conformer_1_docked
     RDKit          3D

 43 46  0  0  0  0  0  0  0  0999 V2000
   -0.2610   44.5460   56.3240 C   0  0  0  0  0  0  0  0  0  0  0  0
    0.9430   44.8690   55.5670 N   0  0  0  0  0  0  0  0  0  0  0  0
    2.0620   45.6360   56.0790 C   0  0  0  0  0  0  0  0  0  0  0  0
    3.1140   45.6320   54.9570 C   0  0  0  0  0  0  0  0  0  0  0  0
    2.3830   45.2010   53.6480 C   0  0  0  0  0  0  0  0  0  0  0  0
    2.0590   46.4300   52.7440 C   0  0  0  0  0  0  0  0  0  0  0  0
    3.1100   46.6640   51.6420 C   0  0  0  0  0  0  0  0  0  0  0  0
    4.4200   46.1420   52.0500 N   0  0  0  0  0  0  0  0  0  0  0  0
    5.4940   47.0500   52.3660 C   0  0  0  0  0  0  0  0  0  0  0  0
    5.2250   48.1960   52.8180 O   0  0  0  0  0  0  0  0  0  0  0  0
    6.9090   46.6700   52.1780 C   0  0  0  0  0  0  0  0  0  0  0  0
    7.4530   46.0200   51.0740 C   0  0  0  0  0  0  0  0  0  0  0  0
    8.8210   45.8980   51.2990 C   0  0  0  0  0  0  0  0  0  0  0  0
    9.0510   46.4860   52.5260 C   0  0  0  0  0  0  0  0  0  0  0  0
   10.2460   46.6360   53.2180 C   0  0  0  0  0  0  0  0  0  0  0  0
   10.1940   47.2810   54.4620 C   0  0  0  0  0  0  0  0  0  0  0  0
    8.9600   47.7440   54.9560 C   0  0  0  0  0  0  0  0  0  0  0  0
    7.8260   47.5630   54.2220 N   0  0  0  0  0  0  0  0  0  0  0  0
    7.9030   46.9490   53.0410 N   0  0  0  0  0  0  0  0  0  0  0  0
    4.5330   44.7110   52.3710 C   0  0  0  0  0  0  0  0  0  0  0  0
    3.1910   44.1370   52.8640 C   0  0  0  0  0  0  0  0  0  0  0  0
    1.1200   44.6210   54.1860 C   0  0  0  0  0  0  0  0  0  0  0  0
    0.2710   44.0030   53.4890 O   0  0  0  0  0  0  0  0  0  0  0  0
   -0.0438   44.6043   57.4008 H   0  0  0  0  0  0  0  0  0  0  0  0
   -1.0564   45.2625   56.0711 H   0  0  0  0  0  0  0  0  0  0  0  0
   -0.5909   43.5276   56.0711 H   0  0  0  0  0  0  0  0  0  0  0  0
    1.7491   46.6653   56.3083 H   0  0  0  0  0  0  0  0  0  0  0  0
    2.4585   45.2054   57.0103 H   0  0  0  0  0  0  0  0  0  0  0  0
    3.5420   46.6382   54.8369 H   0  0  0  0  0  0  0  0  0  0  0  0
    3.9368   44.9411   55.1928 H   0  0  0  0  0  0  0  0  0  0  0  0
    1.0818   46.2653   52.2664 H   0  0  0  0  0  0  0  0  0  0  0  0
    2.0572   47.3205   53.3897 H   0  0  0  0  0  0  0  0  0  0  0  0
    2.7885   46.1523   50.7229 H   0  0  0  0  0  0  0  0  0  0  0  0
    3.2013   47.7461   51.4667 H   0  0  0  0  0  0  0  0  0  0  0  0
    6.9038   45.6681   50.1883 H   0  0  0  0  0  0  0  0  0  0  0  0
    9.5642   45.4302   50.6366 H   0  0  0  0  0  0  0  0  0  0  0  0
   11.1956   46.2635   52.8064 H   0  0  0  0  0  0  0  0  0  0  0  0
   11.1132   47.4244   55.0490 H   0  0  0  0  0  0  0  0  0  0  0  0
    8.9110   48.2503   55.9313 H   0  0  0  0  0  0  0  0  0  0  0  0
    4.8454   44.1655   51.4683 H   0  0  0  0  0  0  0  0  0  0  0  0
    5.2751   44.5944   53.1745 H   0  0  0  0  0  0  0  0  0  0  0  0
    2.6016   43.8059   51.9963 H   0  0  0  0  0  0  0  0  0  0  0  0
    3.3988   43.2913   53.5361 H   0  0  0  0  0  0  0  0  0  0  0  0
  1  2  1  0
  2  3  1  0
  3  4  1  0
  4  5  1  0
  5  6  1  0
  6  7  1  0
  7  8  1  0
  8  9  1  0
  9 10  2  0
  9 11  1  0
 11 12  2  0
 12 13  1  0
 13 14  2  0
 14 15  1  0
 15 16  2  0
 16 17  1  0
 17 18  2  0
 18 19  1  0
  8 20  1  0
 20 21  1  0
  5 22  1  0
 22 23  2  0
 22  2  1  0
 21  5  1  0
 19 11  1  0
 19 14  1  0
  1 24  1  0
  1 25  1  0
  1 26  1  0
  3 27  1  0
  3 28  1  0
  4 29  1  0
  4 30  1  0
  6 31  1  0
  6 32  1  0
  7 33  1  0
  7 34  1  0
 12 35  1  0
 13 36  1  0
 15 37  1  0
 16 38  1  0
 17 39  1  0
 20 40  1  0
 20 41  1  0
 21 42  1  0
 21 43  1  0
M  END
>  <meeko>  (3) 
{"is_sidechain": [false], "free_energy": -8.787, "intermolecular_energy": -9.324, "internal_energy": -0.065}

$$$$
ligand_69_conformer_1_docked
     RDKit          3D

 43 46  0  0  0  0  0  0  0  0999 V2000
   10.2550   46.6890   52.3250 C   0  0  0  0  0  0  0  0  0  0  0  0
    8.8380   46.3450   52.3280 N   0  0  0  0  0  0  0  0  0  0  0  0
    8.0830   45.9360   51.1600 C   0  0  0  0  0  0  0  0  0  0  0  0
    6.6750   45.5950   51.6750 C   0  0  0  0  0  0  0  0  0  0  0  0
    6.5430   46.2300   53.0940 C   0  0  0  0  0  0  0  0  0  0  0  0
    5.7320   47.5620   53.0500 C   0  0  0  0  0  0  0  0  0  0  0  0
    4.2430   47.3750   53.4000 C   0  0  0  0  0  0  0  0  0  0  0  0
    3.7970   46.0150   53.0750 N   0  0  0  0  0  0  0  0  0  0  0  0
    2.8980   45.7930   51.9700 C   0  0  0  0  0  0  0  0  0  0  0  0
    2.9120   46.5860   50.9900 O   0  0  0  0  0  0  0  0  0  0  0  0
    1.9590   44.6530   51.9540 C   0  0  0  0  0  0  0  0  0  0  0  0
    1.9350   43.6110   51.0320 C   0  0  0  0  0  0  0  0  0  0  0  0
    0.9190   42.7410   51.4170 C   0  0  0  0  0  0  0  0  0  0  0  0
    0.3750   43.2870   52.5610 C   0  0  0  0  0  0  0  0  0  0  0  0
   -0.6660   42.8140   53.3500 C   0  0  0  0  0  0  0  0  0  0  0  0
   -1.0210   43.5770   54.4730 C   0  0  0  0  0  0  0  0  0  0  0  0
   -0.3260   44.7680   54.7550 C   0  0  0  0  0  0  0  0  0  0  0  0
    0.6860   45.1710   53.9360 N   0  0  0  0  0  0  0  0  0  0  0  0
    1.0060   44.4270   52.8780 N   0  0  0  0  0  0  0  0  0  0  0  0
    4.4750   44.8820   53.7250 C   0  0  0  0  0  0  0  0  0  0  0  0
    5.9230   45.2400   54.1100 C   0  0  0  0  0  0  0  0  0  0  0  0
    7.9670   46.5170   53.4290 C   0  0  0  0  0  0  0  0  0  0  0  0
    8.3650   46.9050   54.5600 O   0  0  0  0  0  0  0  0  0  0  0  0
   10.6134   46.7760   53.3613 H   0  0  0  0  0  0  0  0  0  0  0  0
   10.8222   45.9025   51.8057 H   0  0  0  0  0  0  0  0  0  0  0  0
   10.3984   47.6480   51.8057 H   0  0  0  0  0  0  0  0  0  0  0  0
    8.0357   46.7552   50.4274 H   0  0  0  0  0  0  0  0  0  0  0  0
    8.5498   45.0780   50.6541 H   0  0  0  0  0  0  0  0  0  0  0  0
    5.9140   46.0149   51.0008 H   0  0  0  0  0  0  0  0  0  0  0  0
    6.5248   44.5061   51.7164 H   0  0  0  0  0  0  0  0  0  0  0  0
    6.1752   48.2656   53.7700 H   0  0  0  0  0  0  0  0  0  0  0  0
    5.7813   47.9421   52.0189 H   0  0  0  0  0  0  0  0  0  0  0  0
    4.1005   47.5536   54.4760 H   0  0  0  0  0  0  0  0  0  0  0  0
    3.6503   48.0902   52.8108 H   0  0  0  0  0  0  0  0  0  0  0  0
    2.5963   43.4962   50.1605 H   0  0  0  0  0  0  0  0  0  0  0  0
    0.6135   41.8117   50.9139 H   0  0  0  0  0  0  0  0  0  0  0  0
   -1.1909   41.8790   53.1044 H   0  0  0  0  0  0  0  0  0  0  0  0
   -1.8388   43.2458   55.1299 H   0  0  0  0  0  0  0  0  0  0  0  0
   -0.5987   45.3714   55.6334 H   0  0  0  0  0  0  0  0  0  0  0  0
    3.9204   44.6068   54.6342 H   0  0  0  0  0  0  0  0  0  0  0  0
    4.5028   44.0417   53.0157 H   0  0  0  0  0  0  0  0  0  0  0  0
    5.9253   45.7018   55.1084 H   0  0  0  0  0  0  0  0  0  0  0  0
    6.5224   44.3177   54.1084 H   0  0  0  0  0  0  0  0  0  0  0  0
  1  2  1  0
  2  3  1  0
  3  4  1  0
  4  5  1  0
  5  6  1  0
  6  7  1  0
  7  8  1  0
  8  9  1  0
  9 10  2  0
  9 11  1  0
 11 12  2  0
 12 13  1  0
 13 14  2  0
 14 15  1  0
 15 16  2  0
 16 17  1  0
 17 18  2  0
 18 19  1  0
  8 20  1  0
 20 21  1  0
  5 22  1  0
 22 23  2  0
 22  2  1  0
 21  5  1  0
 19 11  1  0
 19 14  1  0
  1 24  1  0
  1 25  1  0
  1 26  1  0
  3 27  1  0
  3 28  1  0
  4 29  1  0
  4 30  1  0
  6 31  1  0
  6 32  1  0
  7 33  1  0
  7 34  1  0
 12 35  1  0
 13 36  1  0
 15 37  1  0
 16 38  1  0
 17 39  1  0
 20 40  1  0
 20 41  1  0
 21 42  1  0
 21 43  1  0
M  END
>  <meeko>  (4) 
{"is_sidechain": [false], "free_energy": -8.729, "intermolecular_energy": -8.973, "internal_energy": -0.355}

$$$$
ligand_69_conformer_1_docked
     RDKit          3D

 43 46  0  0  0  0  0  0  0  0999 V2000
   -1.7630   43.8390   55.8900 C   0  0  0  0  0  0  0  0  0  0  0  0
   -0.5650   44.0990   55.1000 N   0  0  0  0  0  0  0  0  0  0  0  0
    0.2440   45.2990   55.1930 C   0  0  0  0  0  0  0  0  0  0  0  0
    1.4320   45.0710   54.2440 C   0  0  0  0  0  0  0  0  0  0  0  0
    1.0430   43.8920   53.3000 C   0  0  0  0  0  0  0  0  0  0  0  0
    0.5850   44.4070   51.9010 C   0  0  0  0  0  0  0  0  0  0  0  0
    1.7130   44.3890   50.8510 C   0  0  0  0  0  0  0  0  0  0  0  0
    3.0270   44.5150   51.4930 N   0  0  0  0  0  0  0  0  0  0  0  0
    3.7900   45.7280   51.3460 C   0  0  0  0  0  0  0  0  0  0  0  0
    3.1890   46.8220   51.1680 O   0  0  0  0  0  0  0  0  0  0  0  0
    5.2670   45.7250   51.4020 C   0  0  0  0  0  0  0  0  0  0  0  0
    6.1340   45.3330   50.3860 C   0  0  0  0  0  0  0  0  0  0  0  0
    7.4310   45.5290   50.8530 C   0  0  0  0  0  0  0  0  0  0  0  0
    7.2960   46.0380   52.1270 C   0  0  0  0  0  0  0  0  0  0  0  0
    8.2810   46.4120   53.0330 C   0  0  0  0  0  0  0  0  0  0  0  0
    7.8600   46.9070   54.2760 C   0  0  0  0  0  0  0  0  0  0  0  0
    6.4840   47.0060   54.5570 C   0  0  0  0  0  0  0  0  0  0  0  0
    5.5720   46.6210   53.6190 N   0  0  0  0  0  0  0  0  0  0  0  0
    5.9990   46.1580   52.4450 N   0  0  0  0  0  0  0  0  0  0  0  0
    3.4230   43.4980   52.4800 C   0  0  0  0  0  0  0  0  0  0  0  0
    2.1950   42.8650   53.1610 C   0  0  0  0  0  0  0  0  0  0  0  0
   -0.1170   43.2980   54.0250 C   0  0  0  0  0  0  0  0  0  0  0  0
   -0.6720   42.2130   53.7030 O   0  0  0  0  0  0  0  0  0  0  0  0
   -1.5152   43.8928   56.9604 H   0  0  0  0  0  0  0  0  0  0  0  0
   -2.5292   44.5918   55.6527 H   0  0  0  0  0  0  0  0  0  0  0  0
   -2.1482   42.8363   55.6527 H   0  0  0  0  0  0  0  0  0  0  0  0
   -0.3362   46.1787   54.8775 H   0  0  0  0  0  0  0  0  0  0  0  0
    0.5770   45.4865   56.2245 H   0  0  0  0  0  0  0  0  0  0  0  0
    1.6239   45.9795   53.6542 H   0  0  0  0  0  0  0  0  0  0  0  0
    2.3459   44.8357   54.8092 H   0  0  0  0  0  0  0  0  0  0  0  0
   -0.2358   43.7675   51.5441 H   0  0  0  0  0  0  0  0  0  0  0  0
    0.2683   45.4532   52.0242 H   0  0  0  0  0  0  0  0  0  0  0  0
    1.6729   43.4405   50.2953 H   0  0  0  0  0  0  0  0  0  0  0  0
    1.5719   45.2399   50.1683 H   0  0  0  0  0  0  0  0  0  0  0  0
    5.8479   44.9415   49.3986 H   0  0  0  0  0  0  0  0  0  0  0  0
    8.3686   45.3209   50.3167 H   0  0  0  0  0  0  0  0  0  0  0  0
    9.3490   46.3233   52.7851 H   0  0  0  0  0  0  0  0  0  0  0  0
    8.6013   47.2163   55.0276 H   0  0  0  0  0  0  0  0  0  0  0  0
    6.1457   47.3925   55.5297 H   0  0  0  0  0  0  0  0  0  0  0  0
    3.9956   42.7090   51.9704 H   0  0  0  0  0  0  0  0  0  0  0  0
    4.0334   43.9867   53.2537 H   0  0  0  0  0  0  0  0  0  0  0  0
    1.8472   42.0147   52.5560 H   0  0  0  0  0  0  0  0  0  0  0  0
    2.4875   42.5298   54.1670 H   0  0  0  0  0  0  0  0  0  0  0  0
  1  2  1  0
  2  3  1  0
  3  4  1  0
  4  5  1  0
  5  6  1  0
  6  7  1  0
  7  8  1  0
  8  9  1  0
  9 10  2  0
  9 11  1  0
 11 12  2  0
 12 13  1  0
 13 14  2  0
 14 15  1  0
 15 16  2  0
 16 17  1  0
 17 18  2  0
 18 19  1  0
  8 20  1  0
 20 21  1  0
  5 22  1  0
 22 23  2  0
 22  2  1  0
 21  5  1  0
 19 11  1  0
 19 14  1  0
  1 24  1  0
  1 25  1  0
  1 26  1  0
  3 27  1  0
  3 28  1  0
  4 29  1  0
  4 30  1  0
  6 31  1  0
  6 32  1  0
  7 33  1  0
  7 34  1  0
 12 35  1  0
 13 36  1  0
 15 37  1  0
 16 38  1  0
 17 39  1  0
 20 40  1  0
 20 41  1  0
 21 42  1  0
 21 43  1  0
M  END
>  <meeko>  (5) 
{"is_sidechain": [false], "free_energy": -8.711, "intermolecular_energy": -8.867, "internal_energy": -0.441}

$$$$
