MODEL 1
REMARK VINA RESULT:   -10.107      0.000      0.000
REMARK INTER + INTRA:         -12.430
REMARK INTER:                 -11.879
REMARK INTRA:                  -0.551
REMARK UNBOUND:                -0.551
REMARK SMILES c1ccc2c(c1)OCC[C@@H]2Nc1nnc(-c2ccc3ccccc3n2)o1
REMARK SMILES IDX 15 1 14 2 13 3 12 4 26 5 16 6 21 7 22 8 20 9 23 10 19 11
REMARK SMILES IDX 24 12 18 13 25 14 17 15 11 16 10 18 9 19 4 20 8 21 3 22 5 23
REMARK SMILES IDX 7 24 2 25 6 26 1 27
REMARK H PARENT 11 17
ROOT
ATOM      1  C   UNL     1       4.628  43.680  51.763  1.00  0.00     0.268 A 
ATOM      2  N   UNL     1       4.336  42.785  50.797  1.00  0.00    -0.104 NA
ATOM      3  N   UNL     1       3.200  42.205  51.155  1.00  0.00    -0.090 NA
ATOM      4  C   UNL     1       2.849  42.771  52.323  1.00  0.00     0.316 A 
ATOM      5  O   UNL     1       3.716  43.675  52.706  1.00  0.00    -0.402 OA
ENDROOT
BRANCH   1   6
ATOM      6  C   UNL     1       5.807  44.557  51.769  1.00  0.00     0.128 A 
ATOM      7  C   UNL     1       9.497  47.659  53.156  1.00  0.00     0.001 A 
ATOM      8  C   UNL     1       8.750  47.382  54.304  1.00  0.00     0.002 A 
ATOM      9  C   UNL     1       9.140  47.089  51.928  1.00  0.00     0.010 A 
ATOM     10  C   UNL     1       7.640  46.533  54.234  1.00  0.00     0.029 A 
ATOM     11  C   UNL     1       8.028  46.238  51.849  1.00  0.00     0.000 A 
ATOM     12  C   UNL     1       7.275  45.959  53.011  1.00  0.00     0.071 A 
ATOM     13  C   UNL     1       7.643  45.653  50.636  1.00  0.00     0.013 A 
ATOM     14  N   UNL     1       6.196  45.135  52.939  1.00  0.00    -0.243 NA
ATOM     15  C   UNL     1       6.531  44.811  50.593  1.00  0.00     0.035 A 
ENDBRANCH   1   6
BRANCH   4  16
ATOM     16  N   UNL     1       1.660  42.430  53.047  1.00  0.00    -0.331 N 
ATOM     17  H   UNL     1       1.666  41.566  53.633  1.00  0.00     0.166 HD
BRANCH  16  18
ATOM     18  C   UNL     1       0.433  43.234  52.993  1.00  0.00     0.121 C 
ATOM     19  C   UNL     1      -0.746  42.355  52.523  1.00  0.00     0.071 C 
ATOM     20  C   UNL     1       0.148  43.908  54.326  1.00  0.00     0.017 A 
ATOM     21  C   UNL     1      -2.066  43.109  52.673  1.00  0.00     0.232 C 
ATOM     22  C   UNL     1       1.188  44.481  55.080  1.00  0.00     0.010 A 
ATOM     23  C   UNL     1      -1.180  44.023  54.788  1.00  0.00     0.124 A 
ATOM     24  O   UNL     1      -2.241  43.523  54.026  1.00  0.00    -0.493 OA
ATOM     25  C   UNL     1       0.914  45.097  56.305  1.00  0.00     0.001 A 
ATOM     26  C   UNL     1      -1.444  44.630  56.020  1.00  0.00     0.047 A 
ATOM     27  C   UNL     1      -0.398  45.162  56.779  1.00  0.00     0.004 A 
ENDBRANCH  16  18
ENDBRANCH   4  16
TORSDOF 3
ENDMDL
MODEL 2
REMARK VINA RESULT:    -9.725      1.231      1.231
REMARK INTER + INTRA:         -11.981
REMARK INTER:                 -11.566
REMARK INTRA:                  -0.415
REMARK UNBOUND:                -0.551
REMARK SMILES c1ccc2c(c1)OCC[C@@H]2Nc1nnc(-c2ccc3ccccc3n2)o1
REMARK SMILES IDX 15 1 14 2 13 3 12 4 26 5 16 6 21 7 22 8 20 9 23 10 19 11
REMARK SMILES IDX 24 12 18 13 25 14 17 15 11 16 10 18 9 19 4 20 8 21 3 22 5 23
REMARK SMILES IDX 7 24 2 25 6 26 1 27
REMARK H PARENT 11 17
ROOT
ATOM      1  C   UNL     1       4.299  45.329  51.614  1.00  0.00     0.268 A 
ATOM      2  N   UNL     1       3.435  45.983  50.810  1.00  0.00    -0.104 NA
ATOM      3  N   UNL     1       2.254  45.409  50.986  1.00  0.00    -0.090 NA
ATOM      4  C   UNL     1       2.450  44.431  51.888  1.00  0.00     0.316 A 
ATOM      5  O   UNL     1       3.699  44.372  52.279  1.00  0.00    -0.402 OA
ENDROOT
BRANCH   1   6
ATOM      6  C   UNL     1       5.730  45.642  51.742  1.00  0.00     0.128 A 
ATOM      7  C   UNL     1      10.200  47.133  53.461  1.00  0.00     0.001 A 
ATOM      8  C   UNL     1       9.279  47.348  54.491  1.00  0.00     0.002 A 
ATOM      9  C   UNL     1       9.779  46.594  52.241  1.00  0.00     0.010 A 
ATOM     10  C   UNL     1       7.931  47.024  54.309  1.00  0.00     0.029 A 
ATOM     11  C   UNL     1       8.428  46.267  52.049  1.00  0.00     0.000 A 
ATOM     12  C   UNL     1       7.500  46.484  53.091  1.00  0.00     0.071 A 
ATOM     13  C   UNL     1       7.973  45.726  50.840  1.00  0.00     0.013 A 
ATOM     14  N   UNL     1       6.190  46.168  52.910  1.00  0.00    -0.243 NA
ATOM     15  C   UNL     1       6.622  45.413  50.683  1.00  0.00     0.035 A 
ENDBRANCH   1   6
BRANCH   4  16
ATOM     16  N   UNL     1       1.409  43.571  52.368  1.00  0.00    -0.331 N 
ATOM     17  H   UNL     1       1.633  42.566  52.535  1.00  0.00     0.166 HD
BRANCH  16  18
ATOM     18  C   UNL     1       0.041  44.039  52.625  1.00  0.00     0.121 C 
ATOM     19  C   UNL     1      -0.973  43.015  52.070  1.00  0.00     0.071 C 
ATOM     20  C   UNL     1      -0.183  44.323  54.102  1.00  0.00     0.017 A 
ATOM     21  C   UNL     1      -2.389  43.370  52.521  1.00  0.00     0.232 C 
ATOM     22  C   UNL     1       0.806  44.962  54.871  1.00  0.00     0.010 A 
ATOM     23  C   UNL     1      -1.420  44.004  54.702  1.00  0.00     0.124 A 
ATOM     24  O   UNL     1      -2.447  43.431  53.944  1.00  0.00    -0.493 OA
ATOM     25  C   UNL     1       0.589  45.216  56.229  1.00  0.00     0.001 A 
ATOM     26  C   UNL     1      -1.625  44.251  56.063  1.00  0.00     0.047 A 
ATOM     27  C   UNL     1      -0.620  44.853  56.826  1.00  0.00     0.004 A 
ENDBRANCH  16  18
ENDBRANCH   4  16
TORSDOF 3
ENDMDL
MODEL 3
REMARK VINA RESULT:    -9.546      2.031      2.564
REMARK INTER + INTRA:         -11.770
REMARK INTER:                 -11.221
REMARK INTRA:                  -0.550
REMARK UNBOUND:                -0.551
REMARK SMILES c1ccc2c(c1)OCC[C@@H]2Nc1nnc(-c2ccc3ccccc3n2)o1
REMARK SMILES IDX 15 1 14 2 13 3 12 4 26 5 16 6 21 7 22 8 20 9 23 10 19 11
REMARK SMILES IDX 24 12 18 13 25 14 17 15 11 16 10 18 9 19 4 20 8 21 3 22 5 23
REMARK SMILES IDX 7 24 2 25 6 26 1 27
REMARK H PARENT 11 17
ROOT
ATOM      1  C   UNL     1       4.011  45.885  51.963  1.00  0.00     0.268 A 
ATOM      2  N   UNL     1       3.205  46.581  52.789  1.00  0.00    -0.104 NA
ATOM      3  N   UNL     1       1.967  46.201  52.513  1.00  0.00    -0.090 NA
ATOM      4  C   UNL     1       2.072  45.290  51.529  1.00  0.00     0.316 A 
ATOM      5  O   UNL     1       3.320  45.089  51.183  1.00  0.00    -0.402 OA
ENDROOT
BRANCH   1   6
ATOM      6  C   UNL     1       5.477  45.989  51.932  1.00  0.00     0.128 A 
ATOM      7  C   UNL     1      10.269  46.888  53.114  1.00  0.00     0.001 A 
ATOM      8  C   UNL     1       9.500  47.285  54.212  1.00  0.00     0.002 A 
ATOM      9  C   UNL     1       9.650  46.357  51.976  1.00  0.00     0.010 A 
ATOM     10  C   UNL     1       8.109  47.155  54.181  1.00  0.00     0.029 A 
ATOM     11  C   UNL     1       8.254  46.224  51.937  1.00  0.00     0.000 A 
ATOM     12  C   UNL     1       7.480  46.626  53.048  1.00  0.00     0.071 A 
ATOM     13  C   UNL     1       7.603  45.697  50.814  1.00  0.00     0.013 A 
ATOM     14  N   UNL     1       6.127  46.499  53.015  1.00  0.00    -0.243 NA
ATOM     15  C   UNL     1       6.212  45.580  50.809  1.00  0.00     0.035 A 
ENDBRANCH   1   6
BRANCH   4  16
ATOM     16  N   UNL     1       0.951  44.615  50.946  1.00  0.00    -0.331 N 
ATOM     17  H   UNL     1       0.697  44.836  49.957  1.00  0.00     0.166 HD
BRANCH  16  18
ATOM     18  C   UNL     1       0.137  43.637  51.678  1.00  0.00     0.121 C 
ATOM     19  C   UNL     1       1.023  42.866  52.679  1.00  0.00     0.071 C 
ATOM     20  C   UNL     1      -1.052  44.299  52.358  1.00  0.00     0.017 A 
ATOM     21  C   UNL     1       0.160  42.006  53.602  1.00  0.00     0.232 C 
ATOM     22  C   UNL     1      -1.792  45.299  51.702  1.00  0.00     0.010 A 
ATOM     23  C   UNL     1      -1.466  43.863  53.635  1.00  0.00     0.124 A 
ATOM     24  O   UNL     1      -0.791  42.822  54.281  1.00  0.00    -0.493 OA
ATOM     25  C   UNL     1      -2.882  45.901  52.338  1.00  0.00     0.001 A 
ATOM     26  C   UNL     1      -2.550  44.478  54.268  1.00  0.00     0.047 A 
ATOM     27  C   UNL     1      -3.255  45.498  53.623  1.00  0.00     0.004 A 
ENDBRANCH  16  18
ENDBRANCH   4  16
TORSDOF 3
ENDMDL
MODEL 4
REMARK VINA RESULT:    -9.334      1.973      2.841
REMARK INTER + INTRA:         -11.522
REMARK INTER:                 -11.084
REMARK INTRA:                  -0.438
REMARK UNBOUND:                -0.551
REMARK SMILES c1ccc2c(c1)OCC[C@@H]2Nc1nnc(-c2ccc3ccccc3n2)o1
REMARK SMILES IDX 15 1 14 2 13 3 12 4 26 5 16 6 21 7 22 8 20 9 23 10 19 11
REMARK SMILES IDX 24 12 18 13 25 14 17 15 11 16 10 18 9 19 4 20 8 21 3 22 5 23
REMARK SMILES IDX 7 24 2 25 6 26 1 27
REMARK H PARENT 11 17
ROOT
ATOM      1  C   UNL     1       3.949  46.077  52.436  1.00  0.00     0.268 A 
ATOM      2  N   UNL     1       3.140  47.155  52.380  1.00  0.00    -0.104 NA
ATOM      3  N   UNL     1       1.920  46.722  52.659  1.00  0.00    -0.090 NA
ATOM      4  C   UNL     1       2.038  45.400  52.872  1.00  0.00     0.316 A 
ATOM      5  O   UNL     1       3.276  44.993  52.738  1.00  0.00    -0.402 OA
ENDROOT
BRANCH   1   6
ATOM      6  C   UNL     1       5.399  46.101  52.198  1.00  0.00     0.128 A 
ATOM      7  C   UNL     1      10.352  46.735  52.684  1.00  0.00     0.001 A 
ATOM      8  C   UNL     1       9.769  47.177  53.876  1.00  0.00     0.002 A 
ATOM      9  C   UNL     1       9.550  46.237  51.651  1.00  0.00     0.010 A 
ATOM     10  C   UNL     1       8.382  47.124  54.043  1.00  0.00     0.029 A 
ATOM     11  C   UNL     1       8.158  46.181  51.810  1.00  0.00     0.000 A 
ATOM     12  C   UNL     1       7.572  46.627  53.015  1.00  0.00     0.071 A 
ATOM     13  C   UNL     1       7.328  45.689  50.795  1.00  0.00     0.013 A 
ATOM     14  N   UNL     1       6.222  46.575  53.173  1.00  0.00    -0.243 NA
ATOM     15  C   UNL     1       5.946  45.648  50.986  1.00  0.00     0.035 A 
ENDBRANCH   1   6
BRANCH   4  16
ATOM     16  N   UNL     1       0.939  44.549  53.219  1.00  0.00    -0.331 N 
ATOM     17  H   UNL     1       0.434  44.052  52.452  1.00  0.00     0.166 HD
BRANCH  16  18
ATOM     18  C   UNL     1       0.484  44.353  54.601  1.00  0.00     0.121 C 
ATOM     19  C   UNL     1       1.438  45.080  55.572  1.00  0.00     0.071 C 
ATOM     20  C   UNL     1      -0.960  44.794  54.781  1.00  0.00     0.017 A 
ATOM     21  C   UNL     1       0.863  45.076  56.988  1.00  0.00     0.232 C 
ATOM     22  C   UNL     1      -1.928  44.506  53.803  1.00  0.00     0.010 A 
ATOM     23  C   UNL     1      -1.357  45.441  55.971  1.00  0.00     0.124 A 
ATOM     24  O   UNL     1      -0.429  45.678  56.991  1.00  0.00    -0.493 OA
ATOM     25  C   UNL     1      -3.253  44.918  53.978  1.00  0.00     0.001 A 
ATOM     26  C   UNL     1      -2.681  45.860  56.134  1.00  0.00     0.047 A 
ATOM     27  C   UNL     1      -3.626  45.602  55.137  1.00  0.00     0.004 A 
ENDBRANCH  16  18
ENDBRANCH   4  16
TORSDOF 3
ENDMDL
MODEL 5
REMARK VINA RESULT:    -9.289      2.303      8.822
REMARK INTER + INTRA:         -11.468
REMARK INTER:                 -11.034
REMARK INTRA:                  -0.434
REMARK UNBOUND:                -0.551
REMARK SMILES c1ccc2c(c1)OCC[C@@H]2Nc1nnc(-c2ccc3ccccc3n2)o1
REMARK SMILES IDX 15 1 14 2 13 3 12 4 26 5 16 6 21 7 22 8 20 9 23 10 19 11
REMARK SMILES IDX 24 12 18 13 25 14 17 15 11 16 10 18 9 19 4 20 8 21 3 22 5 23
REMARK SMILES IDX 7 24 2 25 6 26 1 27
REMARK H PARENT 11 17
ROOT
ATOM      1  C   UNL     1       1.893  45.734  53.404  1.00  0.00     0.268 A 
ATOM      2  N   UNL     1       1.662  45.799  52.076  1.00  0.00    -0.104 NA
ATOM      3  N   UNL     1       2.798  46.189  51.518  1.00  0.00    -0.090 NA
ATOM      4  C   UNL     1       3.671  46.345  52.528  1.00  0.00     0.316 A 
ATOM      5  O   UNL     1       3.128  46.070  53.688  1.00  0.00    -0.402 OA
ENDROOT
BRANCH   1   6
ATOM      6  C   UNL     1       0.901  45.335  54.411  1.00  0.00     0.128 A 
ATOM      7  C   UNL     1      -3.270  43.743  56.700  1.00  0.00     0.001 A 
ATOM      8  C   UNL     1      -3.521  43.698  55.325  1.00  0.00     0.002 A 
ATOM      9  C   UNL     1      -2.028  44.178  57.175  1.00  0.00     0.010 A 
ATOM     10  C   UNL     1      -2.532  44.086  54.416  1.00  0.00     0.029 A 
ATOM     11  C   UNL     1      -1.031  44.570  56.269  1.00  0.00     0.000 A 
ATOM     12  C   UNL     1      -1.287  44.523  54.881  1.00  0.00     0.071 A 
ATOM     13  C   UNL     1       0.223  45.011  56.712  1.00  0.00     0.013 A 
ATOM     14  N   UNL     1      -0.323  44.903  54.000  1.00  0.00    -0.243 NA
ATOM     15  C   UNL     1       1.192  45.395  55.784  1.00  0.00     0.035 A 
ENDBRANCH   1   6
BRANCH   4  16
ATOM     16  N   UNL     1       5.034  46.748  52.347  1.00  0.00    -0.331 N 
ATOM     17  H   UNL     1       5.266  47.763  52.424  1.00  0.00     0.166 HD
BRANCH  16  18
ATOM     18  C   UNL     1       6.116  45.802  52.048  1.00  0.00     0.121 C 
ATOM     19  C   UNL     1       6.144  45.502  50.534  1.00  0.00     0.071 C 
ATOM     20  C   UNL     1       7.457  46.309  52.555  1.00  0.00     0.017 A 
ATOM     21  C   UNL     1       7.392  44.699  50.172  1.00  0.00     0.232 C 
ATOM     22  C   UNL     1       7.563  46.937  53.809  1.00  0.00     0.010 A 
ATOM     23  C   UNL     1       8.626  46.091  51.796  1.00  0.00     0.124 A 
ATOM     24  O   UNL     1       8.562  45.407  50.577  1.00  0.00    -0.493 OA
ATOM     25  C   UNL     1       8.800  47.402  54.263  1.00  0.00     0.001 A 
ATOM     26  C   UNL     1       9.859  46.568  52.252  1.00  0.00     0.047 A 
ATOM     27  C   UNL     1       9.945  47.226  53.482  1.00  0.00     0.004 A 
ENDBRANCH  16  18
ENDBRANCH   4  16
TORSDOF 3
ENDMDL
