ligand_15_conformer_2_docked
     RDKit          3D

 46 48  0  0  0  0  0  0  0  0999 V2000
    2.4020   46.7760   52.4450 C   0  0  0  0  0  0  0  0  0  0  0  0
    3.3990   47.3630   53.2750 O   0  0  0  0  0  0  0  0  0  0  0  0
    4.5310   46.6860   53.7520 C   0  0  0  0  0  0  0  0  0  0  0  0
    4.4640   45.3860   54.2890 C   0  0  0  0  0  0  0  0  0  0  0  0
    5.6190   44.7630   54.7700 C   0  0  0  0  0  0  0  0  0  0  0  0
    6.8460   45.4290   54.7280 C   0  0  0  0  0  0  0  0  0  0  0  0
    6.9280   46.7220   54.1900 C   0  0  0  0  0  0  0  0  0  0  0  0
    8.2340   47.4770   54.2250 C   0  0  0  0  0  0  0  0  0  0  0  0
    8.7590   47.7710   52.8130 C   0  0  0  0  0  0  0  0  0  0  0  0
    8.7470   46.5410   51.9510 C   0  0  0  0  0  0  0  0  0  0  0  0
    9.6480   45.6720   52.0970 O   0  0  0  0  0  0  0  0  0  0  0  0
    7.7010   46.3560   50.9840 N   0  0  0  0  0  0  0  0  0  0  0  0
    7.3040   45.0800   50.4530 C   0  0  0  0  0  0  0  0  0  0  0  0
    8.0710   44.4920   49.4350 C   0  0  0  0  0  0  0  0  0  0  0  0
    7.6890   43.2700   48.8740 C   0  0  0  0  0  0  0  0  0  0  0  0
    6.5270   42.6160   49.3200 C   0  0  0  0  0  0  0  0  0  0  0  0
    6.1040   41.3690   48.7450 N   0  0  0  0  0  0  0  0  0  0  0  0
    5.2840   41.2640   47.5740 C   0  0  0  0  0  0  0  0  0  0  0  0
    5.6670   41.8360   46.3980 N   0  0  0  0  0  0  0  0  0  0  0  0
    4.9120   41.7070   45.2750 C   0  0  0  0  0  0  0  0  0  0  0  0
    3.7320   40.9680   45.3140 C   0  0  0  0  0  0  0  0  0  0  0  0
    3.3560   40.3790   46.5210 C   0  0  0  0  0  0  0  0  0  0  0  0
    4.1370   40.5330   47.6220 N   0  0  0  0  0  0  0  0  0  0  0  0
    5.7340   43.2270   50.3010 C   0  0  0  0  0  0  0  0  0  0  0  0
    6.1190   44.4450   50.8680 C   0  0  0  0  0  0  0  0  0  0  0  0
    5.7670   47.3400   53.6980 C   0  0  0  0  0  0  0  0  0  0  0  0
    1.6243   46.3181   53.0739 H   0  0  0  0  0  0  0  0  0  0  0  0
    1.9501   47.5522   51.8099 H   0  0  0  0  0  0  0  0  0  0  0  0
    2.8614   46.0042   51.8099 H   0  0  0  0  0  0  0  0  0  0  0  0
    3.4993   44.8590   54.3301 H   0  0  0  0  0  0  0  0  0  0  0  0
    5.5615   43.7451   55.1829 H   0  0  0  0  0  0  0  0  0  0  0  0
    7.7502   44.9385   55.1177 H   0  0  0  0  0  0  0  0  0  0  0  0
    8.0809   48.4294   54.7537 H   0  0  0  0  0  0  0  0  0  0  0  0
    8.9767   46.8527   54.7434 H   0  0  0  0  0  0  0  0  0  0  0  0
    8.1228   48.5387   52.3483 H   0  0  0  0  0  0  0  0  0  0  0  0
    9.7984   48.1209   52.8985 H   0  0  0  0  0  0  0  0  0  0  0  0
    7.1940   47.2050   50.6480 H   0  0  0  0  0  0  0  0  0  0  0  0
    8.9799   44.9969   49.0759 H   0  0  0  0  0  0  0  0  0  0  0  0
    8.3007   42.8177   48.0795 H   0  0  0  0  0  0  0  0  0  0  0  0
    6.5030   40.4860   49.1370 H   0  0  0  0  0  0  0  0  0  0  0  0
    5.2322   42.1852   44.3375 H   0  0  0  0  0  0  0  0  0  0  0  0
    3.1110   40.8516   44.4136 H   0  0  0  0  0  0  0  0  0  0  0  0
    2.4285   39.7907   46.5815 H   0  0  0  0  0  0  0  0  0  0  0  0
    4.8011   42.7440   50.6272 H   0  0  0  0  0  0  0  0  0  0  0  0
    5.4920   44.9099   51.6431 H   0  0  0  0  0  0  0  0  0  0  0  0
    5.8298   48.3494   53.2654 H   0  0  0  0  0  0  0  0  0  0  0  0
  1  2  1  0
  2  3  1  0
  3  4  2  0
  4  5  1  0
  5  6  2  0
  6  7  1  0
  7  8  1  0
  8  9  1  0
  9 10  1  0
 10 11  2  0
 10 12  1  0
 12 13  1  0
 13 14  2  0
 14 15  1  0
 15 16  2  0
 16 17  1  0
 17 18  1  0
 18 19  2  0
 19 20  1  0
 20 21  2  0
 21 22  1  0
 22 23  2  0
 16 24  1  0
 24 25  2  0
  7 26  2  0
 26  3  1  0
 25 13  1  0
 23 18  1  0
  1 27  1  0
  1 28  1  0
  1 29  1  0
  4 30  1  0
  5 31  1  0
  6 32  1  0
  8 33  1  0
  8 34  1  0
  9 35  1  0
  9 36  1  0
 12 37  1  0
 14 38  1  0
 15 39  1  0
 17 40  1  0
 20 41  1  0
 21 42  1  0
 22 43  1  0
 24 44  1  0
 25 45  1  0
 26 46  1  0
M  END
>  <meeko>  (1) 
{"is_sidechain": [false], "free_energy": -8.474, "intermolecular_energy": -11.942, "internal_energy": -1.005}

$$$$
ligand_15_conformer_2_docked
     RDKit          3D

 46 48  0  0  0  0  0  0  0  0999 V2000
   10.6030   47.9430   56.2170 C   0  0  0  0  0  0  0  0  0  0  0  0
   10.4700   46.8710   55.2900 O   0  0  0  0  0  0  0  0  0  0  0  0
    9.7290   46.9410   54.1000 C   0  0  0  0  0  0  0  0  0  0  0  0
   10.2740   46.5910   52.8490 C   0  0  0  0  0  0  0  0  0  0  0  0
    9.4990   46.6980   51.6900 C   0  0  0  0  0  0  0  0  0  0  0  0
    8.1830   47.1590   51.7650 C   0  0  0  0  0  0  0  0  0  0  0  0
    7.6260   47.5050   53.0050 C   0  0  0  0  0  0  0  0  0  0  0  0
    6.2360   48.0870   53.0770 C   0  0  0  0  0  0  0  0  0  0  0  0
    5.2140   47.0590   53.5820 C   0  0  0  0  0  0  0  0  0  0  0  0
    4.8400   46.0780   52.5090 C   0  0  0  0  0  0  0  0  0  0  0  0
    4.1320   46.4600   51.5380 O   0  0  0  0  0  0  0  0  0  0  0  0
    5.3050   44.7210   52.5860 N   0  0  0  0  0  0  0  0  0  0  0  0
    5.4260   43.8400   51.4560 C   0  0  0  0  0  0  0  0  0  0  0  0
    4.5960   42.7120   51.3720 C   0  0  0  0  0  0  0  0  0  0  0  0
    4.7170   41.8190   50.3050 C   0  0  0  0  0  0  0  0  0  0  0  0
    5.6770   42.0360   49.3020 C   0  0  0  0  0  0  0  0  0  0  0  0
    5.8330   41.1210   48.2050 N   0  0  0  0  0  0  0  0  0  0  0  0
    4.9850   41.1060   47.0480 C   0  0  0  0  0  0  0  0  0  0  0  0
    5.3900   41.6710   45.8770 N   0  0  0  0  0  0  0  0  0  0  0  0
    4.6070   41.6260   44.7670 C   0  0  0  0  0  0  0  0  0  0  0  0
    3.3730   40.9810   44.8140 C   0  0  0  0  0  0  0  0  0  0  0  0
    2.9750   40.3970   46.0160 C   0  0  0  0  0  0  0  0  0  0  0  0
    3.7860   40.4650   47.1050 N   0  0  0  0  0  0  0  0  0  0  0  0
    6.5410   43.1350   49.4100 C   0  0  0  0  0  0  0  0  0  0  0  0
    6.4150   44.0340   50.4730 C   0  0  0  0  0  0  0  0  0  0  0  0
    8.4040   47.3860   54.1680 C   0  0  0  0  0  0  0  0  0  0  0  0
   10.5541   47.5489   57.2428 H   0  0  0  0  0  0  0  0  0  0  0  0
   11.5701   48.4437   56.0623 H   0  0  0  0  0  0  0  0  0  0  0  0
    9.7875   48.6648   56.0623 H   0  0  0  0  0  0  0  0  0  0  0  0
   11.3119   46.2326   52.7837 H   0  0  0  0  0  0  0  0  0  0  0  0
    9.9273   46.4182   50.7162 H   0  0  0  0  0  0  0  0  0  0  0  0
    7.5813   47.2511   50.8488 H   0  0  0  0  0  0  0  0  0  0  0  0
    6.2450   48.9469   53.7629 H   0  0  0  0  0  0  0  0  0  0  0  0
    5.9404   48.3938   52.0628 H   0  0  0  0  0  0  0  0  0  0  0  0
    5.6487   46.5109   54.4309 H   0  0  0  0  0  0  0  0  0  0  0  0
    4.3051   47.5986   53.8865 H   0  0  0  0  0  0  0  0  0  0  0  0
    5.5760   44.3530   53.5250 H   0  0  0  0  0  0  0  0  0  0  0  0
    3.8435   42.5294   52.1532 H   0  0  0  0  0  0  0  0  0  0  0  0
    4.0570   40.9407   50.2494 H   0  0  0  0  0  0  0  0  0  0  0  0
    6.6730   40.5000   48.1970 H   0  0  0  0  0  0  0  0  0  0  0  0
    4.9469   42.0979   43.8333 H   0  0  0  0  0  0  0  0  0  0  0  0
    2.7281   40.9336   43.9241 H   0  0  0  0  0  0  0  0  0  0  0  0
    2.0055   39.8816   46.0831 H   0  0  0  0  0  0  0  0  0  0  0  0
    7.3236   43.2909   48.6528 H   0  0  0  0  0  0  0  0  0  0  0  0
    7.0924   44.8979   50.5418 H   0  0  0  0  0  0  0  0  0  0  0  0
    7.9669   47.6455   55.1435 H   0  0  0  0  0  0  0  0  0  0  0  0
  1  2  1  0
  2  3  1  0
  3  4  2  0
  4  5  1  0
  5  6  2  0
  6  7  1  0
  7  8  1  0
  8  9  1  0
  9 10  1  0
 10 11  2  0
 10 12  1  0
 12 13  1  0
 13 14  2  0
 14 15  1  0
 15 16  2  0
 16 17  1  0
 17 18  1  0
 18 19  2  0
 19 20  1  0
 20 21  2  0
 21 22  1  0
 22 23  2  0
 16 24  1  0
 24 25  2  0
  7 26  2  0
 26  3  1  0
 25 13  1  0
 23 18  1  0
  1 27  1  0
  1 28  1  0
  1 29  1  0
  4 30  1  0
  5 31  1  0
  6 32  1  0
  8 33  1  0
  8 34  1  0
  9 35  1  0
  9 36  1  0
 12 37  1  0
 14 38  1  0
 15 39  1  0
 17 40  1  0
 20 41  1  0
 21 42  1  0
 22 43  1  0
 24 44  1  0
 25 45  1  0
 26 46  1  0
M  END
>  <meeko>  (2) 
{"is_sidechain": [false], "free_energy": -8.434, "intermolecular_energy": -11.895, "internal_energy": -0.996}

$$$$
ligand_15_conformer_2_docked
     RDKit          3D

 46 48  0  0  0  0  0  0  0  0999 V2000
    9.6020   48.2640   55.3600 C   0  0  0  0  0  0  0  0  0  0  0  0
    8.7540   48.2520   54.2170 O   0  0  0  0  0  0  0  0  0  0  0  0
    8.8900   47.3630   53.1390 C   0  0  0  0  0  0  0  0  0  0  0  0
   10.1390   46.8550   52.7320 C   0  0  0  0  0  0  0  0  0  0  0  0
   10.2220   45.9890   51.6380 C   0  0  0  0  0  0  0  0  0  0  0  0
    9.0690   45.6280   50.9380 C   0  0  0  0  0  0  0  0  0  0  0  0
    7.8190   46.1220   51.3360 C   0  0  0  0  0  0  0  0  0  0  0  0
    6.5840   45.8060   50.5270 C   0  0  0  0  0  0  0  0  0  0  0  0
    6.1830   44.3300   50.6550 C   0  0  0  0  0  0  0  0  0  0  0  0
    4.9770   44.1590   51.5340 C   0  0  0  0  0  0  0  0  0  0  0  0
    4.5040   43.0050   51.7200 O   0  0  0  0  0  0  0  0  0  0  0  0
    4.3870   45.3030   52.1700 N   0  0  0  0  0  0  0  0  0  0  0  0
    3.5730   45.2430   53.3550 C   0  0  0  0  0  0  0  0  0  0  0  0
    4.0970   45.7060   54.5710 C   0  0  0  0  0  0  0  0  0  0  0  0
    3.3440   45.6260   55.7450 C   0  0  0  0  0  0  0  0  0  0  0  0
    2.0510   45.0750   55.7230 C   0  0  0  0  0  0  0  0  0  0  0  0
    1.2650   44.9650   56.9210 N   0  0  0  0  0  0  0  0  0  0  0  0
    0.5170   46.0480   57.4900 C   0  0  0  0  0  0  0  0  0  0  0  0
   -0.6840   46.4210   56.9640 N   0  0  0  0  0  0  0  0  0  0  0  0
   -1.4150   47.4200   57.5230 C   0  0  0  0  0  0  0  0  0  0  0  0
   -0.9450   48.0720   58.6610 C   0  0  0  0  0  0  0  0  0  0  0  0
    0.2800   47.6740   59.1950 C   0  0  0  0  0  0  0  0  0  0  0  0
    0.9830   46.6720   58.6060 N   0  0  0  0  0  0  0  0  0  0  0  0
    1.5460   44.5670   54.5180 C   0  0  0  0  0  0  0  0  0  0  0  0
    2.2960   44.6540   53.3420 C   0  0  0  0  0  0  0  0  0  0  0  0
    7.7380   46.9840   52.4420 C   0  0  0  0  0  0  0  0  0  0  0  0
    8.9877   48.2553   56.2724 H   0  0  0  0  0  0  0  0  0  0  0  0
   10.2496   47.3749   55.3455 H   0  0  0  0  0  0  0  0  0  0  0  0
   10.2241   49.1710   55.3455 H   0  0  0  0  0  0  0  0  0  0  0  0
   11.0513   47.1404   53.2763 H   0  0  0  0  0  0  0  0  0  0  0  0
   11.1991   45.5905   51.3274 H   0  0  0  0  0  0  0  0  0  0  0  0
    9.1418   44.9540   50.0717 H   0  0  0  0  0  0  0  0  0  0  0  0
    5.7539   46.4331   50.8843 H   0  0  0  0  0  0  0  0  0  0  0  0
    6.8058   46.0103   49.4691 H   0  0  0  0  0  0  0  0  0  0  0  0
    5.9545   43.9341   49.6545 H   0  0  0  0  0  0  0  0  0  0  0  0
    7.0217   43.7839   51.1114 H   0  0  0  0  0  0  0  0  0  0  0  0
    4.5650   46.2410   51.7450 H   0  0  0  0  0  0  0  0  0  0  0  0
    5.1092   46.1356   54.6004 H   0  0  0  0  0  0  0  0  0  0  0  0
    3.7651   45.9961   56.6914 H   0  0  0  0  0  0  0  0  0  0  0  0
    1.1440   44.0180   57.3450 H   0  0  0  0  0  0  0  0  0  0  0  0
   -2.3770   47.7139   57.0777 H   0  0  0  0  0  0  0  0  0  0  0  0
   -1.5263   48.8813   59.1270 H   0  0  0  0  0  0  0  0  0  0  0  0
    0.6768   48.1710   60.0925 H   0  0  0  0  0  0  0  0  0  0  0  0
    0.5520   44.0964   54.4979 H   0  0  0  0  0  0  0  0  0  0  0  0
    1.8852   44.2596   52.4009 H   0  0  0  0  0  0  0  0  0  0  0  0
    6.7576   47.3653   52.7637 H   0  0  0  0  0  0  0  0  0  0  0  0
  1  2  1  0
  2  3  1  0
  3  4  2  0
  4  5  1  0
  5  6  2  0
  6  7  1  0
  7  8  1  0
  8  9  1  0
  9 10  1  0
 10 11  2  0
 10 12  1  0
 12 13  1  0
 13 14  2  0
 14 15  1  0
 15 16  2  0
 16 17  1  0
 17 18  1  0
 18 19  2  0
 19 20  1  0
 20 21  2  0
 21 22  1  0
 22 23  2  0
 16 24  1  0
 24 25  2  0
  7 26  2  0
 26  3  1  0
 25 13  1  0
 23 18  1  0
  1 27  1  0
  1 28  1  0
  1 29  1  0
  4 30  1  0
  5 31  1  0
  6 32  1  0
  8 33  1  0
  8 34  1  0
  9 35  1  0
  9 36  1  0
 12 37  1  0
 14 38  1  0
 15 39  1  0
 17 40  1  0
 20 41  1  0
 21 42  1  0
 22 43  1  0
 24 44  1  0
 25 45  1  0
 26 46  1  0
M  END
>  <meeko>  (3) 
{"is_sidechain": [false], "free_energy": -8.345, "intermolecular_energy": -12.029, "internal_energy": -0.736}

$$$$
ligand_15_conformer_2_docked
     RDKit          3D

 46 48  0  0  0  0  0  0  0  0999 V2000
    5.6030   46.8570   54.9030 C   0  0  0  0  0  0  0  0  0  0  0  0
    6.9430   47.3360   54.8980 O   0  0  0  0  0  0  0  0  0  0  0  0
    7.8850   47.0450   53.9000 C   0  0  0  0  0  0  0  0  0  0  0  0
    9.2700   47.2040   54.0980 C   0  0  0  0  0  0  0  0  0  0  0  0
   10.1660   46.9200   53.0630 C   0  0  0  0  0  0  0  0  0  0  0  0
    9.6920   46.4820   51.8250 C   0  0  0  0  0  0  0  0  0  0  0  0
    8.3160   46.3130   51.6160 C   0  0  0  0  0  0  0  0  0  0  0  0
    7.7960   45.9270   50.2520 C   0  0  0  0  0  0  0  0  0  0  0  0
    7.6280   44.4070   50.1170 C   0  0  0  0  0  0  0  0  0  0  0  0
    6.1820   44.0040   50.1640 C   0  0  0  0  0  0  0  0  0  0  0  0
    5.8330   42.8900   49.6890 O   0  0  0  0  0  0  0  0  0  0  0  0
    5.2140   44.8800   50.7640 N   0  0  0  0  0  0  0  0  0  0  0  0
    3.9450   44.4500   51.2870 C   0  0  0  0  0  0  0  0  0  0  0  0
    2.7880   45.1710   50.9600 C   0  0  0  0  0  0  0  0  0  0  0  0
    1.5470   44.7990   51.4830 C   0  0  0  0  0  0  0  0  0  0  0  0
    1.4440   43.6970   52.3490 C   0  0  0  0  0  0  0  0  0  0  0  0
    0.1810   43.3070   52.9140 N   0  0  0  0  0  0  0  0  0  0  0  0
   -0.3180   43.7900   54.1690 C   0  0  0  0  0  0  0  0  0  0  0  0
   -1.4580   43.2790   54.7120 N   0  0  0  0  0  0  0  0  0  0  0  0
   -1.9150   43.7040   55.9190 C   0  0  0  0  0  0  0  0  0  0  0  0
   -1.2040   44.6710   56.6280 C   0  0  0  0  0  0  0  0  0  0  0  0
   -0.0330   45.1780   56.0660 C   0  0  0  0  0  0  0  0  0  0  0  0
    0.3890   44.7280   54.8560 N   0  0  0  0  0  0  0  0  0  0  0  0
    2.6060   43.0060   52.7160 C   0  0  0  0  0  0  0  0  0  0  0  0
    3.8460   43.3730   52.1870 C   0  0  0  0  0  0  0  0  0  0  0  0
    7.4200   46.5900   52.6610 C   0  0  0  0  0  0  0  0  0  0  0  0
    5.2612   46.7348   55.9414 H   0  0  0  0  0  0  0  0  0  0  0  0
    4.9537   47.5787   54.3857 H   0  0  0  0  0  0  0  0  0  0  0  0
    5.5583   45.8872   54.3857 H   0  0  0  0  0  0  0  0  0  0  0  0
    9.6483   47.5528   55.0702 H   0  0  0  0  0  0  0  0  0  0  0  0
   11.2472   47.0420   53.2245 H   0  0  0  0  0  0  0  0  0  0  0  0
   10.4004   46.2688   51.0109 H   0  0  0  0  0  0  0  0  0  0  0  0
    6.8200   46.4089   50.0932 H   0  0  0  0  0  0  0  0  0  0  0  0
    8.5269   46.2591   49.5000 H   0  0  0  0  0  0  0  0  0  0  0  0
    8.0574   44.0843   49.1571 H   0  0  0  0  0  0  0  0  0  0  0  0
    8.1463   43.9274   50.9604 H   0  0  0  0  0  0  0  0  0  0  0  0
    5.4510   45.8950   50.8270 H   0  0  0  0  0  0  0  0  0  0  0  0
    2.8579   46.0373   50.2857 H   0  0  0  0  0  0  0  0  0  0  0  0
    0.6464   45.3713   51.2157 H   0  0  0  0  0  0  0  0  0  0  0  0
   -0.4590   42.7210   52.3320 H   0  0  0  0  0  0  0  0  0  0  0  0
   -2.8434   43.2862   56.3355 H   0  0  0  0  0  0  0  0  0  0  0  0
   -1.5582   45.0255   57.6072 H   0  0  0  0  0  0  0  0  0  0  0  0
    0.5488   45.9421   56.6024 H   0  0  0  0  0  0  0  0  0  0  0  0
    2.5417   42.1682   53.4259 H   0  0  0  0  0  0  0  0  0  0  0  0
    4.7500   42.8168   52.4758 H   0  0  0  0  0  0  0  0  0  0  0  0
    6.3406   46.4478   52.5040 H   0  0  0  0  0  0  0  0  0  0  0  0
  1  2  1  0
  2  3  1  0
  3  4  2  0
  4  5  1  0
  5  6  2  0
  6  7  1  0
  7  8  1  0
  8  9  1  0
  9 10  1  0
 10 11  2  0
 10 12  1  0
 12 13  1  0
 13 14  2  0
 14 15  1  0
 15 16  2  0
 16 17  1  0
 17 18  1  0
 18 19  2  0
 19 20  1  0
 20 21  2  0
 21 22  1  0
 22 23  2  0
 16 24  1  0
 24 25  2  0
  7 26  2  0
 26  3  1  0
 25 13  1  0
 23 18  1  0
  1 27  1  0
  1 28  1  0
  1 29  1  0
  4 30  1  0
  5 31  1  0
  6 32  1  0
  8 33  1  0
  8 34  1  0
  9 35  1  0
  9 36  1  0
 12 37  1  0
 14 38  1  0
 15 39  1  0
 17 40  1  0
 20 41  1  0
 21 42  1  0
 22 43  1  0
 24 44  1  0
 25 45  1  0
 26 46  1  0
M  END
>  <meeko>  (4) 
{"is_sidechain": [false], "free_energy": -8.226, "intermolecular_energy": -11.965, "internal_energy": -0.632}

$$$$
