ligand_66_conformer_1_docked
     RDKit          3D

 42 43  0  0  0  0  0  0  0  0999 V2000
   10.0940   46.4140   52.1920 C   0  0  0  0  0  0  0  0  0  0  0  0
    9.8310   47.0130   53.5710 C   0  0  0  0  0  0  0  0  0  0  0  0
    8.4830   47.7410   53.6100 C   0  0  0  0  0  0  0  0  0  0  0  0
    7.5700   47.0680   54.5320 N   0  0  0  0  0  0  0  0  0  0  0  0
    6.1440   47.1730   54.4170 C   0  0  0  0  0  0  0  0  0  0  0  0
    5.6360   47.9190   53.5350 O   0  0  0  0  0  0  0  0  0  0  0  0
    5.2540   46.3310   55.3060 C   0  0  0  0  0  0  0  0  0  0  0  0
    3.7540   46.4270   54.9060 C   0  0  0  0  0  0  0  0  0  0  0  0
    3.2400   45.1830   54.1590 C   0  0  0  0  0  0  0  0  0  0  0  0
    4.2980   44.6070   53.3210 N   0  0  0  0  0  0  0  0  0  0  0  0
    4.1940   44.6570   51.8840 C   0  0  0  0  0  0  0  0  0  0  0  0
    3.5510   45.5960   51.3390 O   0  0  0  0  0  0  0  0  0  0  0  0
    4.8480   43.6450   51.0250 C   0  0  0  0  0  0  0  0  0  0  0  0
    4.3330   42.3400   50.9560 C   0  0  0  0  0  0  0  0  0  0  0  0
    4.9510   41.3790   50.1500 C   0  0  0  0  0  0  0  0  0  0  0  0
    6.0930   41.7080   49.4170 C   0  0  0  0  0  0  0  0  0  0  0  0
    6.6260   42.9990   49.4940 C   0  0  0  0  0  0  0  0  0  0  0  0
    8.0720   43.4060   48.5890 Cl  0  0  0  0  0  0  0  0  0  0  0  0
    6.0090   43.9630   50.3000 C   0  0  0  0  0  0  0  0  0  0  0  0
    5.5630   44.1970   53.9550 C   0  0  0  0  0  0  0  0  0  0  0  0
    5.7520   44.8730   55.3240 C   0  0  0  0  0  0  0  0  0  0  0  0
   10.5339   45.4122   52.3052 H   0  0  0  0  0  0  0  0  0  0  0  0
    9.1465   46.3380   51.6385 H   0  0  0  0  0  0  0  0  0  0  0  0
   10.7912   47.0601   51.6385 H   0  0  0  0  0  0  0  0  0  0  0  0
    9.8246   46.2055   54.3179 H   0  0  0  0  0  0  0  0  0  0  0  0
   10.6264   47.7397   53.7930 H   0  0  0  0  0  0  0  0  0  0  0  0
    8.6395   48.7768   53.9456 H   0  0  0  0  0  0  0  0  0  0  0  0
    8.0431   47.7341   52.6018 H   0  0  0  0  0  0  0  0  0  0  0  0
    7.9780   46.5030   55.3100 H   0  0  0  0  0  0  0  0  0  0  0  0
    5.3193   46.7337   56.3275 H   0  0  0  0  0  0  0  0  0  0  0  0
    3.1567   46.5561   55.8207 H   0  0  0  0  0  0  0  0  0  0  0  0
    3.6546   47.2816   54.2206 H   0  0  0  0  0  0  0  0  0  0  0  0
    2.9110   44.4319   54.8922 H   0  0  0  0  0  0  0  0  0  0  0  0
    2.4001   45.4800   53.5137 H   0  0  0  0  0  0  0  0  0  0  0  0
    3.4392   42.0728   51.5389 H   0  0  0  0  0  0  0  0  0  0  0  0
    4.5366   40.3616   50.0932 H   0  0  0  0  0  0  0  0  0  0  0  0
    6.5736   40.9518   48.7789 H   0  0  0  0  0  0  0  0  0  0  0  0
    6.4353   44.9749   50.3662 H   0  0  0  0  0  0  0  0  0  0  0  0
    5.5565   43.1057   54.0930 H   0  0  0  0  0  0  0  0  0  0  0  0
    6.3925   44.5038   53.3009 H   0  0  0  0  0  0  0  0  0  0  0  0
    5.1860   44.3111   56.0816 H   0  0  0  0  0  0  0  0  0  0  0  0
    6.8259   44.8775   55.5620 H   0  0  0  0  0  0  0  0  0  0  0  0
  1  2  1  0
  2  3  1  0
  3  4  1  0
  4  5  1  0
  5  6  2  0
  5  7  1  0
  7  8  1  0
  8  9  1  0
  9 10  1  0
 10 11  1  0
 11 12  2  0
 11 13  1  0
 13 14  2  0
 14 15  1  0
 15 16  2  0
 16 17  1  0
 17 18  1  0
 17 19  2  0
 10 20  1  0
 20 21  1  0
 21  7  1  0
 19 13  1  0
  1 22  1  0
  1 23  1  0
  1 24  1  0
  2 25  1  0
  2 26  1  0
  3 27  1  0
  3 28  1  0
  4 29  1  0
  7 30  1  0
  8 31  1  0
  8 32  1  0
  9 33  1  0
  9 34  1  0
 14 35  1  0
 15 36  1  0
 16 37  1  0
 19 38  1  0
 20 39  1  0
 20 40  1  0
 21 41  1  0
 21 42  1  0
M  END
>  <meeko>  (1) 
{"is_sidechain": [false], "free_energy": -8.493, "intermolecular_energy": -10.479, "internal_energy": -0.704}

$$$$
ligand_66_conformer_1_docked
     RDKit          3D

 42 43  0  0  0  0  0  0  0  0999 V2000
   10.0450   46.5360   52.2820 C   0  0  0  0  0  0  0  0  0  0  0  0
    8.8020   46.9330   51.4900 C   0  0  0  0  0  0  0  0  0  0  0  0
    8.0370   48.0600   52.1910 C   0  0  0  0  0  0  0  0  0  0  0  0
    6.8620   47.5260   52.8770 N   0  0  0  0  0  0  0  0  0  0  0  0
    6.8770   47.1700   54.2670 C   0  0  0  0  0  0  0  0  0  0  0  0
    7.9490   47.2530   54.9270 O   0  0  0  0  0  0  0  0  0  0  0  0
    5.5890   46.7680   54.9540 C   0  0  0  0  0  0  0  0  0  0  0  0
    4.3300   47.3040   54.2170 C   0  0  0  0  0  0  0  0  0  0  0  0
    3.5840   46.2230   53.4130 C   0  0  0  0  0  0  0  0  0  0  0  0
    4.5290   45.2440   52.8620 N   0  0  0  0  0  0  0  0  0  0  0  0
    4.7450   45.1670   51.4380 C   0  0  0  0  0  0  0  0  0  0  0  0
    4.5890   46.1980   50.7290 O   0  0  0  0  0  0  0  0  0  0  0  0
    5.1730   43.9090   50.7880 C   0  0  0  0  0  0  0  0  0  0  0  0
    6.4890   43.7720   50.3140 C   0  0  0  0  0  0  0  0  0  0  0  0
    6.8960   42.5870   49.6950 C   0  0  0  0  0  0  0  0  0  0  0  0
    5.9940   41.5340   49.5320 C   0  0  0  0  0  0  0  0  0  0  0  0
    4.6760   41.6670   49.9830 C   0  0  0  0  0  0  0  0  0  0  0  0
    3.5370   40.3510   49.7620 Cl  0  0  0  0  0  0  0  0  0  0  0  0
    4.2650   42.8520   50.6040 C   0  0  0  0  0  0  0  0  0  0  0  0
    5.4170   44.5150   53.7840 C   0  0  0  0  0  0  0  0  0  0  0  0
    5.5410   45.2380   55.1360 C   0  0  0  0  0  0  0  0  0  0  0  0
    9.8310   46.6044   53.3588 H   0  0  0  0  0  0  0  0  0  0  0  0
   10.3266   45.5032   52.0290 H   0  0  0  0  0  0  0  0  0  0  0  0
   10.8731   47.2143   52.0290 H   0  0  0  0  0  0  0  0  0  0  0  0
    9.1073   47.2742   50.4898 H   0  0  0  0  0  0  0  0  0  0  0  0
    8.1413   46.0567   51.4151 H   0  0  0  0  0  0  0  0  0  0  0  0
    8.6971   48.5442   52.9257 H   0  0  0  0  0  0  0  0  0  0  0  0
    7.7095   48.7921   51.4381 H   0  0  0  0  0  0  0  0  0  0  0  0
    5.9860   47.3860   52.3250 H   0  0  0  0  0  0  0  0  0  0  0  0
    5.5774   47.2374   55.9488 H   0  0  0  0  0  0  0  0  0  0  0  0
    3.6394   47.7207   54.9650 H   0  0  0  0  0  0  0  0  0  0  0  0
    4.6734   48.0631   53.4988 H   0  0  0  0  0  0  0  0  0  0  0  0
    2.8732   45.7064   54.0748 H   0  0  0  0  0  0  0  0  0  0  0  0
    3.0487   46.7056   52.5819 H   0  0  0  0  0  0  0  0  0  0  0  0
    7.2020   44.6014   50.4308 H   0  0  0  0  0  0  0  0  0  0  0  0
    7.9303   42.4836   49.3351 H   0  0  0  0  0  0  0  0  0  0  0  0
    6.3191   40.6005   49.0494 H   0  0  0  0  0  0  0  0  0  0  0  0
    3.2260   42.9567   50.9498 H   0  0  0  0  0  0  0  0  0  0  0  0
    5.0078   43.5081   53.9532 H   0  0  0  0  0  0  0  0  0  0  0  0
    6.4169   44.4596   53.3290 H   0  0  0  0  0  0  0  0  0  0  0  0
    4.6737   44.9791   55.7611 H   0  0  0  0  0  0  0  0  0  0  0  0
    6.4776   44.9171   55.6153 H   0  0  0  0  0  0  0  0  0  0  0  0
  1  2  1  0
  2  3  1  0
  3  4  1  0
  4  5  1  0
  5  6  2  0
  5  7  1  0
  7  8  1  0
  8  9  1  0
  9 10  1  0
 10 11  1  0
 11 12  2  0
 11 13  1  0
 13 14  2  0
 14 15  1  0
 15 16  2  0
 16 17  1  0
 17 18  1  0
 17 19  2  0
 10 20  1  0
 20 21  1  0
 21  7  1  0
 19 13  1  0
  1 22  1  0
  1 23  1  0
  1 24  1  0
  2 25  1  0
  2 26  1  0
  3 27  1  0
  3 28  1  0
  4 29  1  0
  7 30  1  0
  8 31  1  0
  8 32  1  0
  9 33  1  0
  9 34  1  0
 14 35  1  0
 15 36  1  0
 16 37  1  0
 19 38  1  0
 20 39  1  0
 20 40  1  0
 21 41  1  0
 21 42  1  0
M  END
>  <meeko>  (2) 
{"is_sidechain": [false], "free_energy": -8.466, "intermolecular_energy": -10.42, "internal_energy": -0.73}

$$$$
ligand_66_conformer_1_docked
     RDKit          3D

 42 43  0  0  0  0  0  0  0  0999 V2000
    6.2320   43.0810   49.7840 C   0  0  0  0  0  0  0  0  0  0  0  0
    5.8290   41.6400   50.0830 C   0  0  0  0  0  0  0  0  0  0  0  0
    4.5450   41.5870   50.9180 C   0  0  0  0  0  0  0  0  0  0  0  0
    3.8010   42.8380   50.7860 N   0  0  0  0  0  0  0  0  0  0  0  0
    3.3960   43.6180   51.9190 C   0  0  0  0  0  0  0  0  0  0  0  0
    3.6240   43.1960   53.0870 O   0  0  0  0  0  0  0  0  0  0  0  0
    2.7650   44.9770   51.7110 C   0  0  0  0  0  0  0  0  0  0  0  0
    2.4400   45.6930   53.0520 C   0  0  0  0  0  0  0  0  0  0  0  0
    3.4260   46.8230   53.3980 C   0  0  0  0  0  0  0  0  0  0  0  0
    4.7760   46.4940   52.9270 N   0  0  0  0  0  0  0  0  0  0  0  0
    5.8300   46.2270   53.8740 C   0  0  0  0  0  0  0  0  0  0  0  0
    5.5430   45.7510   55.0060 O   0  0  0  0  0  0  0  0  0  0  0  0
    7.2510   46.4720   53.5400 C   0  0  0  0  0  0  0  0  0  0  0  0
    7.7060   46.2960   52.2220 C   0  0  0  0  0  0  0  0  0  0  0  0
    9.0480   46.5210   51.9030 C   0  0  0  0  0  0  0  0  0  0  0  0
    9.9490   46.9130   52.8950 C   0  0  0  0  0  0  0  0  0  0  0  0
    9.5100   47.0730   54.2140 C   0  0  0  0  0  0  0  0  0  0  0  0
   10.6460   47.5470   55.4640 Cl  0  0  0  0  0  0  0  0  0  0  0  0
    8.1670   46.8490   54.5370 C   0  0  0  0  0  0  0  0  0  0  0  0
    4.9810   46.2100   51.4960 C   0  0  0  0  0  0  0  0  0  0  0  0
    3.6590   45.8420   50.8010 C   0  0  0  0  0  0  0  0  0  0  0  0
    6.3836   43.6230   50.7291 H   0  0  0  0  0  0  0  0  0  0  0  0
    7.1664   43.0875   49.2037 H   0  0  0  0  0  0  0  0  0  0  0  0
    5.4365   43.5713   49.2037 H   0  0  0  0  0  0  0  0  0  0  0  0
    5.6623   41.1095   49.1339 H   0  0  0  0  0  0  0  0  0  0  0  0
    6.6378   41.1632   50.6561 H   0  0  0  0  0  0  0  0  0  0  0  0
    3.9185   40.7537   50.5673 H   0  0  0  0  0  0  0  0  0  0  0  0
    4.8118   41.4397   51.9749 H   0  0  0  0  0  0  0  0  0  0  0  0
    3.5450   43.1630   49.8260 H   0  0  0  0  0  0  0  0  0  0  0  0
    1.7983   44.8256   51.2084 H   0  0  0  0  0  0  0  0  0  0  0  0
    1.4294   46.1217   52.9820 H   0  0  0  0  0  0  0  0  0  0  0  0
    2.5184   44.9391   53.8492 H   0  0  0  0  0  0  0  0  0  0  0  0
    3.0922   47.7539   52.9164 H   0  0  0  0  0  0  0  0  0  0  0  0
    3.4526   46.9476   54.4906 H   0  0  0  0  0  0  0  0  0  0  0  0
    7.0025   45.9797   51.4377 H   0  0  0  0  0  0  0  0  0  0  0  0
    9.3953   46.3889   50.8677 H   0  0  0  0  0  0  0  0  0  0  0  0
   11.0032   47.0959   52.6398 H   0  0  0  0  0  0  0  0  0  0  0  0
    7.8266   46.9686   55.5762 H   0  0  0  0  0  0  0  0  0  0  0  0
    5.4037   47.1023   51.0112 H   0  0  0  0  0  0  0  0  0  0  0  0
    5.6677   45.3552   51.4080 H   0  0  0  0  0  0  0  0  0  0  0  0
    3.1204   46.7662   50.5448 H   0  0  0  0  0  0  0  0  0  0  0  0
    3.8941   45.2625   49.8961 H   0  0  0  0  0  0  0  0  0  0  0  0
  1  2  1  0
  2  3  1  0
  3  4  1  0
  4  5  1  0
  5  6  2  0
  5  7  1  0
  7  8  1  0
  8  9  1  0
  9 10  1  0
 10 11  1  0
 11 12  2  0
 11 13  1  0
 13 14  2  0
 14 15  1  0
 15 16  2  0
 16 17  1  0
 17 18  1  0
 17 19  2  0
 10 20  1  0
 20 21  1  0
 21  7  1  0
 19 13  1  0
  1 22  1  0
  1 23  1  0
  1 24  1  0
  2 25  1  0
  2 26  1  0
  3 27  1  0
  3 28  1  0
  4 29  1  0
  7 30  1  0
  8 31  1  0
  8 32  1  0
  9 33  1  0
  9 34  1  0
 14 35  1  0
 15 36  1  0
 16 37  1  0
 19 38  1  0
 20 39  1  0
 20 40  1  0
 21 41  1  0
 21 42  1  0
M  END
>  <meeko>  (3) 
{"is_sidechain": [false], "free_energy": -7.921, "intermolecular_energy": -10.362, "internal_energy": -0.116}

$$$$
ligand_66_conformer_1_docked
     RDKit          3D

 42 43  0  0  0  0  0  0  0  0999 V2000
    5.4950   41.7170   50.0260 C   0  0  0  0  0  0  0  0  0  0  0  0
    5.1780   42.8960   50.9420 C   0  0  0  0  0  0  0  0  0  0  0  0
    3.9220   42.6270   51.7750 C   0  0  0  0  0  0  0  0  0  0  0  0
    3.5670   43.8110   52.5560 N   0  0  0  0  0  0  0  0  0  0  0  0
    2.7300   44.8540   52.0370 C   0  0  0  0  0  0  0  0  0  0  0  0
    2.3230   44.8010   50.8440 O   0  0  0  0  0  0  0  0  0  0  0  0
    2.2750   45.9750   52.9460 C   0  0  0  0  0  0  0  0  0  0  0  0
    2.4370   45.6230   54.4520 C   0  0  0  0  0  0  0  0  0  0  0  0
    3.6360   46.3200   55.1180 C   0  0  0  0  0  0  0  0  0  0  0  0
    4.7430   46.4690   54.1660 N   0  0  0  0  0  0  0  0  0  0  0  0
    5.9630   45.7230   54.3490 C   0  0  0  0  0  0  0  0  0  0  0  0
    5.9280   44.6070   54.9360 O   0  0  0  0  0  0  0  0  0  0  0  0
    7.2590   46.2220   53.8390 C   0  0  0  0  0  0  0  0  0  0  0  0
    7.9370   47.2470   54.5210 C   0  0  0  0  0  0  0  0  0  0  0  0
    9.1600   47.7260   54.0390 C   0  0  0  0  0  0  0  0  0  0  0  0
    9.7090   47.1960   52.8700 C   0  0  0  0  0  0  0  0  0  0  0  0
    9.0330   46.1890   52.1740 C   0  0  0  0  0  0  0  0  0  0  0  0
    9.7130   45.5370   50.6940 Cl  0  0  0  0  0  0  0  0  0  0  0  0
    7.8090   45.7070   52.6530 C   0  0  0  0  0  0  0  0  0  0  0  0
    4.5060   47.1990   52.9080 C   0  0  0  0  0  0  0  0  0  0  0  0
    3.0050   47.2830   52.5800 C   0  0  0  0  0  0  0  0  0  0  0  0
    5.7328   40.8327   50.6355 H   0  0  0  0  0  0  0  0  0  0  0  0
    4.6230   41.5011   49.3912 H   0  0  0  0  0  0  0  0  0  0  0  0
    6.3577   41.9675   49.3912 H   0  0  0  0  0  0  0  0  0  0  0  0
    6.0287   43.0634   51.6190 H   0  0  0  0  0  0  0  0  0  0  0  0
    4.9988   43.7840   50.3179 H   0  0  0  0  0  0  0  0  0  0  0  0
    3.0889   42.3723   51.1033 H   0  0  0  0  0  0  0  0  0  0  0  0
    4.1211   41.7917   52.4625 H   0  0  0  0  0  0  0  0  0  0  0  0
    3.9540   43.9020   53.5230 H   0  0  0  0  0  0  0  0  0  0  0  0
    1.1966   46.1210   52.7859 H   0  0  0  0  0  0  0  0  0  0  0  0
    1.5208   45.9245   54.9808 H   0  0  0  0  0  0  0  0  0  0  0  0
    2.6162   44.5395   54.5143 H   0  0  0  0  0  0  0  0  0  0  0  0
    3.3257   47.3150   55.4698 H   0  0  0  0  0  0  0  0  0  0  0  0
    3.9772   45.7057   55.9643 H   0  0  0  0  0  0  0  0  0  0  0  0
    7.5043   47.6744   55.4376 H   0  0  0  0  0  0  0  0  0  0  0  0
    9.6902   48.5220   54.5824 H   0  0  0  0  0  0  0  0  0  0  0  0
   10.6734   47.5705   52.4963 H   0  0  0  0  0  0  0  0  0  0  0  0
    7.2753   44.9213   52.0982 H   0  0  0  0  0  0  0  0  0  0  0  0
    4.9085   48.2181   53.0047 H   0  0  0  0  0  0  0  0  0  0  0  0
    5.0078   46.6559   52.0936 H   0  0  0  0  0  0  0  0  0  0  0  0
    2.5601   48.1125   53.1493 H   0  0  0  0  0  0  0  0  0  0  0  0
    2.8959   47.4493   51.4981 H   0  0  0  0  0  0  0  0  0  0  0  0
  1  2  1  0
  2  3  1  0
  3  4  1  0
  4  5  1  0
  5  6  2  0
  5  7  1  0
  7  8  1  0
  8  9  1  0
  9 10  1  0
 10 11  1  0
 11 12  2  0
 11 13  1  0
 13 14  2  0
 14 15  1  0
 15 16  2  0
 16 17  1  0
 17 18  1  0
 17 19  2  0
 10 20  1  0
 20 21  1  0
 21  7  1  0
 19 13  1  0
  1 22  1  0
  1 23  1  0
  1 24  1  0
  2 25  1  0
  2 26  1  0
  3 27  1  0
  3 28  1  0
  4 29  1  0
  7 30  1  0
  8 31  1  0
  8 32  1  0
  9 33  1  0
  9 34  1  0
 14 35  1  0
 15 36  1  0
 16 37  1  0
 19 38  1  0
 20 39  1  0
 20 40  1  0
 21 41  1  0
 21 42  1  0
M  END
>  <meeko>  (4) 
{"is_sidechain": [false], "free_energy": -7.669, "intermolecular_energy": -9.462, "internal_energy": -0.705}

$$$$
ligand_66_conformer_1_docked
     RDKit          3D

 42 43  0  0  0  0  0  0  0  0999 V2000
    5.6550   44.9470   55.2310 C   0  0  0  0  0  0  0  0  0  0  0  0
    4.7270   46.1520   55.3530 C   0  0  0  0  0  0  0  0  0  0  0  0
    3.2880   45.7150   55.6420 C   0  0  0  0  0  0  0  0  0  0  0  0
    2.8910   44.6390   54.7350 N   0  0  0  0  0  0  0  0  0  0  0  0
    1.5400   44.4680   54.2860 C   0  0  0  0  0  0  0  0  0  0  0  0
    0.6300   45.2240   54.7250 O   0  0  0  0  0  0  0  0  0  0  0  0
    1.2240   43.4320   53.2300 C   0  0  0  0  0  0  0  0  0  0  0  0
    0.6730   44.0650   51.9210 C   0  0  0  0  0  0  0  0  0  0  0  0
    1.7020   44.1040   50.7780 C   0  0  0  0  0  0  0  0  0  0  0  0
    3.0560   44.3120   51.3070 N   0  0  0  0  0  0  0  0  0  0  0  0
    3.7550   45.5460   51.0470 C   0  0  0  0  0  0  0  0  0  0  0  0
    3.0980   46.6070   50.8660 O   0  0  0  0  0  0  0  0  0  0  0  0
    5.2330   45.6050   51.0140 C   0  0  0  0  0  0  0  0  0  0  0  0
    5.9200   46.5240   51.8240 C   0  0  0  0  0  0  0  0  0  0  0  0
    7.3170   46.5870   51.7920 C   0  0  0  0  0  0  0  0  0  0  0  0
    8.0370   45.7430   50.9440 C   0  0  0  0  0  0  0  0  0  0  0  0
    7.3620   44.8370   50.1200 C   0  0  0  0  0  0  0  0  0  0  0  0
    8.2660   43.7910   49.0410 Cl  0  0  0  0  0  0  0  0  0  0  0  0
    5.9640   44.7720   50.1500 C   0  0  0  0  0  0  0  0  0  0  0  0
    3.5890   43.3550   52.2930 C   0  0  0  0  0  0  0  0  0  0  0  0
    2.4620   42.5520   52.9640 C   0  0  0  0  0  0  0  0  0  0  0  0
    5.9286   44.5917   56.2355 H   0  0  0  0  0  0  0  0  0  0  0  0
    5.1411   44.1423   54.6848 H   0  0  0  0  0  0  0  0  0  0  0  0
    6.5643   45.2383   54.6848 H   0  0  0  0  0  0  0  0  0  0  0  0
    5.0788   46.7943   56.1738 H   0  0  0  0  0  0  0  0  0  0  0  0
    4.7400   46.7000   54.3993 H   0  0  0  0  0  0  0  0  0  0  0  0
    3.2190   45.3581   56.6802 H   0  0  0  0  0  0  0  0  0  0  0  0
    2.6171   46.5738   55.4926 H   0  0  0  0  0  0  0  0  0  0  0  0
    3.6230   43.9630   54.4190 H   0  0  0  0  0  0  0  0  0  0  0  0
    0.4175   42.7925   53.6180 H   0  0  0  0  0  0  0  0  0  0  0  0
   -0.1949   43.4768   51.5883 H   0  0  0  0  0  0  0  0  0  0  0  0
    0.4068   45.1069   52.1525 H   0  0  0  0  0  0  0  0  0  0  0  0
    1.6705   43.1503   50.2307 H   0  0  0  0  0  0  0  0  0  0  0  0
    1.4526   44.9378   50.1053 H   0  0  0  0  0  0  0  0  0  0  0  0
    5.3568   47.1974   52.4867 H   0  0  0  0  0  0  0  0  0  0  0  0
    7.8493   47.3026   52.4359 H   0  0  0  0  0  0  0  0  0  0  0  0
    9.1358   45.7908   50.9242 H   0  0  0  0  0  0  0  0  0  0  0  0
    5.4349   44.0652   49.4939 H   0  0  0  0  0  0  0  0  0  0  0  0
    4.2699   42.6579   51.7828 H   0  0  0  0  0  0  0  0  0  0  0  0
    4.1206   43.9214   53.0718 H   0  0  0  0  0  0  0  0  0  0  0  0
    2.1743   41.7198   52.3047 H   0  0  0  0  0  0  0  0  0  0  0  0
    2.8327   42.1760   53.9290 H   0  0  0  0  0  0  0  0  0  0  0  0
  1  2  1  0
  2  3  1  0
  3  4  1  0
  4  5  1  0
  5  6  2  0
  5  7  1  0
  7  8  1  0
  8  9  1  0
  9 10  1  0
 10 11  1  0
 11 12  2  0
 11 13  1  0
 13 14  2  0
 14 15  1  0
 15 16  2  0
 16 17  1  0
 17 18  1  0
 17 19  2  0
 10 20  1  0
 20 21  1  0
 21  7  1  0
 19 13  1  0
  1 22  1  0
  1 23  1  0
  1 24  1  0
  2 25  1  0
  2 26  1  0
  3 27  1  0
  3 28  1  0
  4 29  1  0
  7 30  1  0
  8 31  1  0
  8 32  1  0
  9 33  1  0
  9 34  1  0
 14 35  1  0
 15 36  1  0
 16 37  1  0
 19 38  1  0
 20 39  1  0
 20 40  1  0
 21 41  1  0
 21 42  1  0
M  END
>  <meeko>  (5) 
{"is_sidechain": [false], "free_energy": -7.324, "intermolecular_energy": -9.41, "internal_energy": -0.332}

$$$$
