ligand_2_conformer_5_docked
     RDKit          3D

 59 62  0  0  0  0  0  0  0  0999 V2000
   -2.4580   43.7990   57.2520 C   0  0  0  0  0  0  0  0  0  0  0  0
   -1.5320   44.2520   56.1640 C   0  0  0  0  0  0  0  0  0  0  0  0
   -1.3760   43.6230   54.9450 C   0  0  0  0  0  0  0  0  0  0  0  0
   -0.3930   44.3620   54.3150 C   0  0  0  0  0  0  0  0  0  0  0  0
    0.1350   44.0780   53.0120 N   0  0  0  0  0  0  0  0  0  0  0  0
    1.4580   44.4420   52.5900 C   0  0  0  0  0  0  0  0  0  0  0  0
    2.2340   45.0500   53.3750 O   0  0  0  0  0  0  0  0  0  0  0  0
    1.8940   44.1030   51.2640 N   0  0  0  0  0  0  0  0  0  0  0  0
    3.2120   44.4670   50.7340 C   0  0  0  0  0  0  0  0  0  0  0  0
    4.2810   43.4870   51.2580 C   0  0  0  0  0  0  0  0  0  0  0  0
    4.9830   44.0460   52.5020 C   0  0  0  0  0  0  0  0  0  0  0  0
    5.7200   45.3060   52.2120 N   0  0  0  0  0  0  0  0  0  0  0  0
    6.0430   46.0760   53.4480 C   0  0  1  0  0  0  0  0  0  0  0  0
    5.7550   45.2800   54.7370 C   0  0  0  0  0  0  0  0  0  0  0  0
    7.5120   46.4660   53.4680 C   0  0  0  0  0  0  0  0  0  0  0  0
    8.0360   47.2000   54.5470 C   0  0  0  0  0  0  0  0  0  0  0  0
    9.3880   47.5530   54.5700 C   0  0  0  0  0  0  0  0  0  0  0  0
   10.2310   47.1700   53.5230 C   0  0  0  0  0  0  0  0  0  0  0  0
    9.7230   46.4310   52.4520 C   0  0  0  0  0  0  0  0  0  0  0  0
    8.3710   46.0760   52.4240 C   0  0  0  0  0  0  0  0  0  0  0  0
    5.0520   46.1520   51.1780 C   0  0  0  0  0  0  0  0  0  0  0  0
    3.5350   45.9280   51.1080 C   0  0  0  0  0  0  0  0  0  0  0  0
    0.0120   45.3780   55.1020 N   0  0  0  0  0  0  0  0  0  0  0  0
   -0.6980   45.3160   56.2190 N   0  0  0  0  0  0  0  0  0  0  0  0
   -0.5190   46.2360   57.3070 C   0  0  0  0  0  0  0  0  0  0  0  0
    0.7190   46.3010   57.9650 C   0  0  0  0  0  0  0  0  0  0  0  0
    0.9120   47.1970   59.0200 C   0  0  0  0  0  0  0  0  0  0  0  0
   -0.1250   48.0450   59.4160 C   0  0  0  0  0  0  0  0  0  0  0  0
    0.0640   48.9150   60.4380 F   0  0  0  0  0  0  0  0  0  0  0  0
   -1.3540   48.0050   58.7510 C   0  0  0  0  0  0  0  0  0  0  0  0
   -1.5520   47.1090   57.6950 C   0  0  0  0  0  0  0  0  0  0  0  0
   -2.7300   47.1290   57.0220 F   0  0  0  0  0  0  0  0  0  0  0  0
   -2.0083   44.0190   58.2315 H   0  0  0  0  0  0  0  0  0  0  0  0
   -3.4173   44.3295   57.1615 H   0  0  0  0  0  0  0  0  0  0  0  0
   -2.6280   42.7160   57.1615 H   0  0  0  0  0  0  0  0  0  0  0  0
   -1.9097   42.7397   54.5642 H   0  0  0  0  0  0  0  0  0  0  0  0
   -0.4790   43.5710   52.3360 H   0  0  0  0  0  0  0  0  0  0  0  0
    1.2060   43.6550   50.6180 H   0  0  0  0  0  0  0  0  0  0  0  0
    3.2074   44.3931   49.6365 H   0  0  0  0  0  0  0  0  0  0  0  0
    3.7976   42.5334   51.5167 H   0  0  0  0  0  0  0  0  0  0  0  0
    5.0340   43.3386   50.4700 H   0  0  0  0  0  0  0  0  0  0  0  0
    4.2269   44.2476   53.2751 H   0  0  0  0  0  0  0  0  0  0  0  0
    5.7137   43.2977   52.8428 H   0  0  0  0  0  0  0  0  0  0  0  0
    5.3970   46.9660   53.4246 H   0  0  0  0  0  0  0  0  0  0  0  0
    5.9815   45.9059   55.6128 H   0  0  0  0  0  0  0  0  0  0  0  0
    4.6945   44.9887   54.7588 H   0  0  0  0  0  0  0  0  0  0  0  0
    6.3836   44.3776   54.7588 H   0  0  0  0  0  0  0  0  0  0  0  0
    7.3784   47.4978   55.3770 H   0  0  0  0  0  0  0  0  0  0  0  0
    9.7895   48.1334   55.4137 H   0  0  0  0  0  0  0  0  0  0  0  0
   11.2945   47.4505   53.5424 H   0  0  0  0  0  0  0  0  0  0  0  0
   10.3876   46.1279   51.6295 H   0  0  0  0  0  0  0  0  0  0  0  0
    7.9768   45.4888   51.5815 H   0  0  0  0  0  0  0  0  0  0  0  0
    5.2395   47.2095   51.4158 H   0  0  0  0  0  0  0  0  0  0  0  0
    5.4716   45.8700   50.2010 H   0  0  0  0  0  0  0  0  0  0  0  0
    3.0916   46.1554   52.0887 H   0  0  0  0  0  0  0  0  0  0  0  0
    3.1169   46.5897   50.3351 H   0  0  0  0  0  0  0  0  0  0  0  0
    1.5418   45.6431   57.6486 H   0  0  0  0  0  0  0  0  0  0  0  0
    1.8812   47.2345   59.5389 H   0  0  0  0  0  0  0  0  0  0  0  0
   -2.1669   48.6793   59.0586 H   0  0  0  0  0  0  0  0  0  0  0  0
  1  2  1  0
  2  3  2  0
  3  4  1  0
  4  5  1  0
  5  6  1  0
  6  7  2  0
  6  8  1  0
  8  9  1  0
  9 10  1  0
 10 11  1  0
 11 12  1  0
 12 13  1  0
 13 14  1  0
 13 15  1  0
 15 16  2  0
 16 17  1  0
 17 18  2  0
 18 19  1  0
 19 20  2  0
 12 21  1  0
 21 22  1  0
  4 23  2  0
 23 24  1  0
 24 25  1  0
 25 26  2  0
 26 27  1  0
 27 28  2  0
 28 29  1  0
 28 30  1  0
 30 31  2  0
 31 32  1  0
 24  2  1  0
 31 25  1  0
 22  9  1  0
 20 15  1  0
  1 33  1  0
  1 34  1  0
  1 35  1  0
  3 36  1  0
  5 37  1  0
  8 38  1  0
  9 39  1  0
 10 40  1  0
 10 41  1  0
 11 42  1  0
 11 43  1  0
 13 44  1  1
 14 45  1  0
 14 46  1  0
 14 47  1  0
 16 48  1  0
 17 49  1  0
 18 50  1  0
 19 51  1  0
 20 52  1  0
 21 53  1  0
 21 54  1  0
 22 55  1  0
 22 56  1  0
 26 57  1  0
 27 58  1  0
 30 59  1  0
M  END
>  <meeko>  (1) 
{"is_sidechain": [false], "free_energy": -9.531, "intermolecular_energy": -12.317, "internal_energy": -0.031}

$$$$
ligand_2_conformer_5_docked
     RDKit          3D

 59 62  0  0  0  0  0  0  0  0999 V2000
   -3.6590   45.4210   57.7010 C   0  0  0  0  0  0  0  0  0  0  0  0
   -2.2490   45.5280   57.2040 C   0  0  0  0  0  0  0  0  0  0  0  0
   -1.5610   44.5230   56.5530 C   0  0  0  0  0  0  0  0  0  0  0  0
   -0.3060   45.0620   56.3460 C   0  0  0  0  0  0  0  0  0  0  0  0
    0.7840   44.3760   55.7150 N   0  0  0  0  0  0  0  0  0  0  0  0
    1.2690   44.6860   54.4000 C   0  0  0  0  0  0  0  0  0  0  0  0
    0.7330   45.6030   53.7220 O   0  0  0  0  0  0  0  0  0  0  0  0
    2.3740   43.9440   53.8620 N   0  0  0  0  0  0  0  0  0  0  0  0
    2.9110   44.1640   52.5150 C   0  0  0  0  0  0  0  0  0  0  0  0
    4.3050   43.5160   52.3890 C   0  0  0  0  0  0  0  0  0  0  0  0
    5.4180   44.5380   52.6530 C   0  0  0  0  0  0  0  0  0  0  0  0
    5.4120   45.6430   51.6550 N   0  0  0  0  0  0  0  0  0  0  0  0
    6.1790   46.8350   52.1180 C   0  0  1  0  0  0  0  0  0  0  0  0
    5.8320   47.2400   53.5660 C   0  0  0  0  0  0  0  0  0  0  0  0
    7.6740   46.5650   52.0640 C   0  0  0  0  0  0  0  0  0  0  0  0
    8.2280   45.8610   50.9800 C   0  0  0  0  0  0  0  0  0  0  0  0
    9.6030   45.6180   50.9250 C   0  0  0  0  0  0  0  0  0  0  0  0
   10.4380   46.0800   51.9460 C   0  0  0  0  0  0  0  0  0  0  0  0
    9.9000   46.7900   53.0210 C   0  0  0  0  0  0  0  0  0  0  0  0
    8.5250   47.0360   53.0810 C   0  0  0  0  0  0  0  0  0  0  0  0
    4.0400   46.0030   51.1850 C   0  0  0  0  0  0  0  0  0  0  0  0
    2.9490   45.6770   52.2140 C   0  0  0  0  0  0  0  0  0  0  0  0
   -0.2440   46.3160   56.8350 N   0  0  0  0  0  0  0  0  0  0  0  0
   -1.4350   46.6000   57.3390 N   0  0  0  0  0  0  0  0  0  0  0  0
   -1.7330   47.8540   57.9710 C   0  0  0  0  0  0  0  0  0  0  0  0
   -1.0940   48.1970   59.1730 C   0  0  0  0  0  0  0  0  0  0  0  0
   -1.3670   49.4180   59.7950 C   0  0  0  0  0  0  0  0  0  0  0  0
   -2.2690   50.3130   59.2150 C   0  0  0  0  0  0  0  0  0  0  0  0
   -2.5310   51.4970   59.8190 F   0  0  0  0  0  0  0  0  0  0  0  0
   -2.8930   49.9910   58.0060 C   0  0  0  0  0  0  0  0  0  0  0  0
   -2.6230   48.7700   57.3790 C   0  0  0  0  0  0  0  0  0  0  0  0
   -3.1900   48.5040   56.1760 F   0  0  0  0  0  0  0  0  0  0  0  0
   -3.6610   45.4208   58.8010 H   0  0  0  0  0  0  0  0  0  0  0  0
   -4.2433   46.2774   57.3334 H   0  0  0  0  0  0  0  0  0  0  0  0
   -4.1074   44.4862   57.3334 H   0  0  0  0  0  0  0  0  0  0  0  0
   -1.9269   43.5261   56.2662 H   0  0  0  0  0  0  0  0  0  0  0  0
    1.2560   43.6120   56.2490 H   0  0  0  0  0  0  0  0  0  0  0  0
    2.7550   43.1490   54.4230 H   0  0  0  0  0  0  0  0  0  0  0  0
    2.2577   43.6872   51.7695 H   0  0  0  0  0  0  0  0  0  0  0  0
    4.3879   42.6983   53.1201 H   0  0  0  0  0  0  0  0  0  0  0  0
    4.4197   43.1332   51.3642 H   0  0  0  0  0  0  0  0  0  0  0  0
    5.2762   44.9656   53.6565 H   0  0  0  0  0  0  0  0  0  0  0  0
    6.3830   44.0158   52.5744 H   0  0  0  0  0  0  0  0  0  0  0  0
    5.8991   47.6540   51.4391 H   0  0  0  0  0  0  0  0  0  0  0  0
    6.3827   46.5972   54.2685 H   0  0  0  0  0  0  0  0  0  0  0  0
    6.1150   48.2901   53.7309 H   0  0  0  0  0  0  0  0  0  0  0  0
    4.7509   47.1214   53.7309 H   0  0  0  0  0  0  0  0  0  0  0  0
    7.5757   45.4998   50.1713 H   0  0  0  0  0  0  0  0  0  0  0  0
   10.0289   45.0621   50.0767 H   0  0  0  0  0  0  0  0  0  0  0  0
   11.5196   45.8842   51.9026 H   0  0  0  0  0  0  0  0  0  0  0  0
   10.5589   47.1564   53.8220 H   0  0  0  0  0  0  0  0  0  0  0  0
    8.1064   47.6004   53.9273 H   0  0  0  0  0  0  0  0  0  0  0  0
    4.0132   47.0826   50.9757 H   0  0  0  0  0  0  0  0  0  0  0  0
    3.8329   45.4051   50.2852 H   0  0  0  0  0  0  0  0  0  0  0  0
    3.1569   46.2244   53.1452 H   0  0  0  0  0  0  0  0  0  0  0  0
    1.9749   45.9779   51.8010 H   0  0  0  0  0  0  0  0  0  0  0  0
   -0.3742   47.5005   59.6278 H   0  0  0  0  0  0  0  0  0  0  0  0
   -0.8710   49.6748   60.7426 H   0  0  0  0  0  0  0  0  0  0  0  0
   -3.5980   50.6995   57.5467 H   0  0  0  0  0  0  0  0  0  0  0  0
  1  2  1  0
  2  3  2  0
  3  4  1  0
  4  5  1  0
  5  6  1  0
  6  7  2  0
  6  8  1  0
  8  9  1  0
  9 10  1  0
 10 11  1  0
 11 12  1  0
 12 13  1  0
 13 14  1  0
 13 15  1  0
 15 16  2  0
 16 17  1  0
 17 18  2  0
 18 19  1  0
 19 20  2  0
 12 21  1  0
 21 22  1  0
  4 23  2  0
 23 24  1  0
 24 25  1  0
 25 26  2  0
 26 27  1  0
 27 28  2  0
 28 29  1  0
 28 30  1  0
 30 31  2  0
 31 32  1  0
 24  2  1  0
 31 25  1  0
 22  9  1  0
 20 15  1  0
  1 33  1  0
  1 34  1  0
  1 35  1  0
  3 36  1  0
  5 37  1  0
  8 38  1  0
  9 39  1  0
 10 40  1  0
 10 41  1  0
 11 42  1  0
 11 43  1  0
 13 44  1  6
 14 45  1  0
 14 46  1  0
 14 47  1  0
 16 48  1  0
 17 49  1  0
 18 50  1  0
 19 51  1  0
 20 52  1  0
 21 53  1  0
 21 54  1  0
 22 55  1  0
 22 56  1  0
 26 57  1  0
 27 58  1  0
 30 59  1  0
M  END
>  <meeko>  (2) 
{"is_sidechain": [false], "free_energy": -9.495, "intermolecular_energy": -11.882, "internal_energy": -0.42}

$$$$
ligand_2_conformer_5_docked
     RDKit          3D

 59 62  0  0  0  0  0  0  0  0999 V2000
   -3.9800   44.3580   54.1520 C   0  0  0  0  0  0  0  0  0  0  0  0
   -2.5080   44.2040   54.3880 C   0  0  0  0  0  0  0  0  0  0  0  0
   -1.6270   43.5940   53.5180 C   0  0  0  0  0  0  0  0  0  0  0  0
   -0.4170   43.6460   54.1830 C   0  0  0  0  0  0  0  0  0  0  0  0
    0.8150   43.1100   53.6820 N   0  0  0  0  0  0  0  0  0  0  0  0
    1.6250   43.7580   52.6900 C   0  0  0  0  0  0  0  0  0  0  0  0
    1.2690   44.8640   52.2000 O   0  0  0  0  0  0  0  0  0  0  0  0
    2.8480   43.1400   52.2620 N   0  0  0  0  0  0  0  0  0  0  0  0
    3.7180   43.7090   51.2280 C   0  0  0  0  0  0  0  0  0  0  0  0
    5.1930   43.3840   51.5410 C   0  0  0  0  0  0  0  0  0  0  0  0
    5.8680   44.5380   52.2920 C   0  0  0  0  0  0  0  0  0  0  0  0
    5.9090   45.7870   51.4820 N   0  0  0  0  0  0  0  0  0  0  0  0
    6.1610   46.9990   52.3140 C   0  0  1  0  0  0  0  0  0  0  0  0
    5.2500   47.0690   53.5560 C   0  0  0  0  0  0  0  0  0  0  0  0
    7.6020   47.0250   52.8010 C   0  0  0  0  0  0  0  0  0  0  0  0
    8.6560   46.7650   51.9070 C   0  0  0  0  0  0  0  0  0  0  0  0
    9.9810   46.7950   52.3520 C   0  0  0  0  0  0  0  0  0  0  0  0
   10.2660   47.0910   53.6880 C   0  0  0  0  0  0  0  0  0  0  0  0
    9.2260   47.3610   54.5810 C   0  0  0  0  0  0  0  0  0  0  0  0
    7.8990   47.3320   54.1410 C   0  0  0  0  0  0  0  0  0  0  0  0
    4.7190   45.9500   50.5940 C   0  0  0  0  0  0  0  0  0  0  0  0
    3.4720   45.2290   51.1230 C   0  0  0  0  0  0  0  0  0  0  0  0
   -0.5580   44.2580   55.3760 N   0  0  0  0  0  0  0  0  0  0  0  0
   -1.8300   44.6110   55.4860 N   0  0  0  0  0  0  0  0  0  0  0  0
   -2.3560   45.2720   56.6470 C   0  0  0  0  0  0  0  0  0  0  0  0
   -2.2530   46.6680   56.7570 C   0  0  0  0  0  0  0  0  0  0  0  0
   -2.7680   47.3280   57.8760 C   0  0  0  0  0  0  0  0  0  0  0  0
   -3.4010   46.6020   58.8870 C   0  0  0  0  0  0  0  0  0  0  0  0
   -3.9010   47.2440   59.9710 F   0  0  0  0  0  0  0  0  0  0  0  0
   -3.5290   45.2140   58.7760 C   0  0  0  0  0  0  0  0  0  0  0  0
   -3.0160   44.5490   57.6580 C   0  0  0  0  0  0  0  0  0  0  0  0
   -3.2050   43.2110   57.5380 F   0  0  0  0  0  0  0  0  0  0  0  0
   -4.5025   44.4127   55.1184 H   0  0  0  0  0  0  0  0  0  0  0  0
   -4.1655   45.2805   53.5822 H   0  0  0  0  0  0  0  0  0  0  0  0
   -4.3524   43.4939   53.5822 H   0  0  0  0  0  0  0  0  0  0  0  0
   -1.8387   43.1664   52.5269 H   0  0  0  0  0  0  0  0  0  0  0  0
    1.1440   42.1960   54.0690 H   0  0  0  0  0  0  0  0  0  0  0  0
    3.0820   42.1950   52.6420 H   0  0  0  0  0  0  0  0  0  0  0  0
    3.4815   43.2604   50.2519 H   0  0  0  0  0  0  0  0  0  0  0  0
    5.2365   42.4774   52.1624 H   0  0  0  0  0  0  0  0  0  0  0  0
    5.7246   43.2288   50.5906 H   0  0  0  0  0  0  0  0  0  0  0  0
    5.3076   44.7342   53.2180 H   0  0  0  0  0  0  0  0  0  0  0  0
    6.9048   44.2406   52.5077 H   0  0  0  0  0  0  0  0  0  0  0  0
    5.9461   47.8591   51.6629 H   0  0  0  0  0  0  0  0  0  0  0  0
    5.8663   47.0216   54.4659 H   0  0  0  0  0  0  0  0  0  0  0  0
    4.6857   48.0132   53.5441 H   0  0  0  0  0  0  0  0  0  0  0  0
    4.5481   46.2221   53.5441 H   0  0  0  0  0  0  0  0  0  0  0  0
    8.4370   46.5371   50.8534 H   0  0  0  0  0  0  0  0  0  0  0  0
   10.8009   46.5852   51.6493 H   0  0  0  0  0  0  0  0  0  0  0  0
   11.3092   47.1114   54.0363 H   0  0  0  0  0  0  0  0  0  0  0  0
    9.4513   47.5967   55.6316 H   0  0  0  0  0  0  0  0  0  0  0  0
    7.0836   47.5503   54.8463 H   0  0  0  0  0  0  0  0  0  0  0  0
    4.4923   47.0227   50.5053 H   0  0  0  0  0  0  0  0  0  0  0  0
    4.9705   45.5013   49.6217 H   0  0  0  0  0  0  0  0  0  0  0  0
    3.2234   45.6233   52.1194 H   0  0  0  0  0  0  0  0  0  0  0  0
    2.6417   45.4032   50.4229 H   0  0  0  0  0  0  0  0  0  0  0  0
   -1.7644   47.2452   55.9582 H   0  0  0  0  0  0  0  0  0  0  0  0
   -2.6746   48.4208   57.9605 H   0  0  0  0  0  0  0  0  0  0  0  0
   -4.0342   44.6441   59.5697 H   0  0  0  0  0  0  0  0  0  0  0  0
  1  2  1  0
  2  3  2  0
  3  4  1  0
  4  5  1  0
  5  6  1  0
  6  7  2  0
  6  8  1  0
  8  9  1  0
  9 10  1  0
 10 11  1  0
 11 12  1  0
 12 13  1  0
 13 14  1  0
 13 15  1  0
 15 16  2  0
 16 17  1  0
 17 18  2  0
 18 19  1  0
 19 20  2  0
 12 21  1  0
 21 22  1  0
  4 23  2  0
 23 24  1  0
 24 25  1  0
 25 26  2  0
 26 27  1  0
 27 28  2  0
 28 29  1  0
 28 30  1  0
 30 31  2  0
 31 32  1  0
 24  2  1  0
 31 25  1  0
 22  9  1  0
 20 15  1  0
  1 33  1  0
  1 34  1  0
  1 35  1  0
  3 36  1  0
  5 37  1  0
  8 38  1  0
  9 39  1  0
 10 40  1  0
 10 41  1  0
 11 42  1  0
 11 43  1  0
 13 44  1  6
 14 45  1  0
 14 46  1  0
 14 47  1  0
 16 48  1  0
 17 49  1  0
 18 50  1  0
 19 51  1  0
 20 52  1  0
 21 53  1  0
 21 54  1  0
 22 55  1  0
 22 56  1  0
 26 57  1  0
 27 58  1  0
 30 59  1  0
M  END
>  <meeko>  (3) 
{"is_sidechain": [false], "free_energy": -8.787, "intermolecular_energy": -11.222, "internal_energy": -0.165}

$$$$
ligand_2_conformer_5_docked
     RDKit          3D

 59 62  0  0  0  0  0  0  0  0999 V2000
    2.4950   35.6590   44.4690 C   0  0  0  0  0  0  0  0  0  0  0  0
    2.3840   36.8570   45.3630 C   0  0  0  0  0  0  0  0  0  0  0  0
    3.3810   37.7900   45.5630 C   0  0  0  0  0  0  0  0  0  0  0  0
    2.8410   38.6570   46.4930 C   0  0  0  0  0  0  0  0  0  0  0  0
    3.5190   39.7950   47.0410 N   0  0  0  0  0  0  0  0  0  0  0  0
    3.6390   40.0530   48.4490 C   0  0  0  0  0  0  0  0  0  0  0  0
    3.1300   39.2610   49.2870 O   0  0  0  0  0  0  0  0  0  0  0  0
    4.3470   41.2200   48.8950 N   0  0  0  0  0  0  0  0  0  0  0  0
    4.4870   41.5840   50.3090 C   0  0  0  0  0  0  0  0  0  0  0  0
    3.1640   42.1780   50.8350 C   0  0  0  0  0  0  0  0  0  0  0  0
    3.1800   43.7100   50.7690 C   0  0  0  0  0  0  0  0  0  0  0  0
    4.2410   44.2970   51.6340 N   0  0  0  0  0  0  0  0  0  0  0  0
    4.5530   45.7110   51.2740 C   0  0  1  0  0  0  0  0  0  0  0  0
    3.4270   46.6880   51.6700 C   0  0  0  0  0  0  0  0  0  0  0  0
    5.8250   46.1720   51.9680 C   0  0  0  0  0  0  0  0  0  0  0  0
    5.8250   46.4280   53.3510 C   0  0  0  0  0  0  0  0  0  0  0  0
    6.9950   46.8450   53.9910 C   0  0  0  0  0  0  0  0  0  0  0  0
    8.1760   47.0040   53.2600 C   0  0  0  0  0  0  0  0  0  0  0  0
    8.1890   46.7420   51.8890 C   0  0  0  0  0  0  0  0  0  0  0  0
    7.0210   46.3250   51.2430 C   0  0  0  0  0  0  0  0  0  0  0  0
    5.4690   43.4510   51.7130 C   0  0  0  0  0  0  0  0  0  0  0  0
    5.6670   42.5630   50.4770 C   0  0  0  0  0  0  0  0  0  0  0  0
    1.5920   38.2750   46.8260 N   0  0  0  0  0  0  0  0  0  0  0  0
    1.3130   37.1890   46.1210 N   0  0  0  0  0  0  0  0  0  0  0  0
    0.0660   36.4860   46.2330 C   0  0  0  0  0  0  0  0  0  0  0  0
   -0.9850   36.7940   45.3550 C   0  0  0  0  0  0  0  0  0  0  0  0
   -2.2030   36.1140   45.4460 C   0  0  0  0  0  0  0  0  0  0  0  0
   -2.3750   35.1110   46.4030 C   0  0  0  0  0  0  0  0  0  0  0  0
   -3.5550   34.4510   46.4890 F   0  0  0  0  0  0  0  0  0  0  0  0
   -1.3250   34.7810   47.2660 C   0  0  0  0  0  0  0  0  0  0  0  0
   -0.1050   35.4600   47.1800 C   0  0  0  0  0  0  0  0  0  0  0  0
    0.9210   35.0820   47.9840 F   0  0  0  0  0  0  0  0  0  0  0  0
    2.5792   34.7500   45.0828 H   0  0  0  0  0  0  0  0  0  0  0  0
    1.5993   35.5910   43.8341 H   0  0  0  0  0  0  0  0  0  0  0  0
    3.3879   35.7568   43.8341 H   0  0  0  0  0  0  0  0  0  0  0  0
    4.3740   37.8332   45.0918 H   0  0  0  0  0  0  0  0  0  0  0  0
    3.9570   40.4710   46.3760 H   0  0  0  0  0  0  0  0  0  0  0  0
    4.7020   41.8870   48.1740 H   0  0  0  0  0  0  0  0  0  0  0  0
    4.7056   40.6868   50.9068 H   0  0  0  0  0  0  0  0  0  0  0  0
    2.3323   41.8009   50.2217 H   0  0  0  0  0  0  0  0  0  0  0  0
    3.0391   41.8755   51.8852 H   0  0  0  0  0  0  0  0  0  0  0  0
    3.3597   44.0183   49.7285 H   0  0  0  0  0  0  0  0  0  0  0  0
    2.2075   44.0748   51.1310 H   0  0  0  0  0  0  0  0  0  0  0  0
    4.6705   45.7237   50.1804 H   0  0  0  0  0  0  0  0  0  0  0  0
    3.3604   46.7458   52.7665 H   0  0  0  0  0  0  0  0  0  0  0  0
    3.6474   47.6859   51.2630 H   0  0  0  0  0  0  0  0  0  0  0  0
    2.4702   46.3291   51.2630 H   0  0  0  0  0  0  0  0  0  0  0  0
    4.8996   46.2993   53.9315 H   0  0  0  0  0  0  0  0  0  0  0  0
    6.9868   47.0485   55.0720 H   0  0  0  0  0  0  0  0  0  0  0  0
    9.0951   47.3356   53.7653 H   0  0  0  0  0  0  0  0  0  0  0  0
    9.1198   46.8638   51.3157 H   0  0  0  0  0  0  0  0  0  0  0  0
    7.0374   46.1157   50.1632 H   0  0  0  0  0  0  0  0  0  0  0  0
    6.3432   44.1110   51.8140 H   0  0  0  0  0  0  0  0  0  0  0  0
    5.3541   42.7852   52.5811 H   0  0  0  0  0  0  0  0  0  0  0  0
    5.7366   43.2001   49.5830 H   0  0  0  0  0  0  0  0  0  0  0  0
    6.5914   41.9809   50.6064 H   0  0  0  0  0  0  0  0  0  0  0  0
   -0.8495   37.5743   44.5916 H   0  0  0  0  0  0  0  0  0  0  0  0
   -3.0269   36.3690   44.7633 H   0  0  0  0  0  0  0  0  0  0  0  0
   -1.4588   33.9857   48.0141 H   0  0  0  0  0  0  0  0  0  0  0  0
  1  2  1  0
  2  3  2  0
  3  4  1  0
  4  5  1  0
  5  6  1  0
  6  7  2  0
  6  8  1  0
  8  9  1  0
  9 10  1  0
 10 11  1  0
 11 12  1  0
 12 13  1  0
 13 14  1  0
 13 15  1  0
 15 16  2  0
 16 17  1  0
 17 18  2  0
 18 19  1  0
 19 20  2  0
 12 21  1  0
 21 22  1  0
  4 23  2  0
 23 24  1  0
 24 25  1  0
 25 26  2  0
 26 27  1  0
 27 28  2  0
 28 29  1  0
 28 30  1  0
 30 31  2  0
 31 32  1  0
 24  2  1  0
 31 25  1  0
 22  9  1  0
 20 15  1  0
  1 33  1  0
  1 34  1  0
  1 35  1  0
  3 36  1  0
  5 37  1  0
  8 38  1  0
  9 39  1  0
 10 40  1  0
 10 41  1  0
 11 42  1  0
 11 43  1  0
 13 44  1  6
 14 45  1  0
 14 46  1  0
 14 47  1  0
 16 48  1  0
 17 49  1  0
 18 50  1  0
 19 51  1  0
 20 52  1  0
 21 53  1  0
 21 54  1  0
 22 55  1  0
 22 56  1  0
 26 57  1  0
 27 58  1  0
 30 59  1  0
M  END
>  <meeko>  (4) 
{"is_sidechain": [false], "free_energy": -8.424, "intermolecular_energy": -10.193, "internal_energy": -0.724}

$$$$
ligand_2_conformer_5_docked
     RDKit          3D

 59 62  0  0  0  0  0  0  0  0999 V2000
    6.1340   44.0640   50.3770 C   0  0  0  0  0  0  0  0  0  0  0  0
    5.1850   44.9180   51.1620 C   0  0  0  0  0  0  0  0  0  0  0  0
    3.8090   44.8730   51.0590 C   0  0  0  0  0  0  0  0  0  0  0  0
    3.3810   45.8630   51.9220 C   0  0  0  0  0  0  0  0  0  0  0  0
    2.0090   46.2180   52.1440 N   0  0  0  0  0  0  0  0  0  0  0  0
    0.9590   45.2600   52.3520 C   0  0  0  0  0  0  0  0  0  0  0  0
    1.2120   44.0250   52.3430 O   0  0  0  0  0  0  0  0  0  0  0  0
   -0.3820   45.7200   52.5740 N   0  0  0  0  0  0  0  0  0  0  0  0
   -1.5220   44.8160   52.7570 C   0  0  0  0  0  0  0  0  0  0  0  0
   -2.8100   45.6300   52.9940 C   0  0  0  0  0  0  0  0  0  0  0  0
   -3.1020   45.7840   54.4920 C   0  0  0  0  0  0  0  0  0  0  0  0
   -3.3450   44.4730   55.1530 N   0  0  0  0  0  0  0  0  0  0  0  0
   -3.2100   44.5480   56.6370 C   0  0  1  0  0  0  0  0  0  0  0  0
   -3.1260   43.1570   57.2980 C   0  0  0  0  0  0  0  0  0  0  0  0
   -1.9550   45.3150   57.0230 C   0  0  0  0  0  0  0  0  0  0  0  0
   -2.0520   46.6240   57.5270 C   0  0  0  0  0  0  0  0  0  0  0  0
   -0.9000   47.3280   57.8890 C   0  0  0  0  0  0  0  0  0  0  0  0
    0.3570   46.7310   57.7580 C   0  0  0  0  0  0  0  0  0  0  0  0
    0.4630   45.4270   57.2690 C   0  0  0  0  0  0  0  0  0  0  0  0
   -0.6860   44.7180   56.9050 C   0  0  0  0  0  0  0  0  0  0  0  0
   -2.5360   43.3610   54.5690 C   0  0  0  0  0  0  0  0  0  0  0  0
   -1.2310   43.8450   53.9210 C   0  0  0  0  0  0  0  0  0  0  0  0
    4.4330   46.4610   52.5150 N   0  0  0  0  0  0  0  0  0  0  0  0
    5.5270   45.8690   52.0620 N   0  0  0  0  0  0  0  0  0  0  0  0
    6.8480   46.2630   52.4630 C   0  0  0  0  0  0  0  0  0  0  0  0
    7.7120   46.8500   51.5250 C   0  0  0  0  0  0  0  0  0  0  0  0
    8.9980   47.2470   51.9010 C   0  0  0  0  0  0  0  0  0  0  0  0
    9.4260   47.0760   53.2200 C   0  0  0  0  0  0  0  0  0  0  0  0
   10.6730   47.4630   53.5840 F   0  0  0  0  0  0  0  0  0  0  0  0
    8.5640   46.5140   54.1670 C   0  0  0  0  0  0  0  0  0  0  0  0
    7.2770   46.1150   53.7950 C   0  0  0  0  0  0  0  0  0  0  0  0
    6.4340   45.6300   54.7420 F   0  0  0  0  0  0  0  0  0  0  0  0
    6.7700   43.4917   51.0684 H   0  0  0  0  0  0  0  0  0  0  0  0
    5.5635   43.3691   49.7432 H   0  0  0  0  0  0  0  0  0  0  0  0
    6.7651   44.7044   49.7432 H   0  0  0  0  0  0  0  0  0  0  0  0
    3.1967   44.2050   50.4355 H   0  0  0  0  0  0  0  0  0  0  0  0
    1.7630   47.2330   52.1610 H   0  0  0  0  0  0  0  0  0  0  0  0
   -0.5690   46.7460   52.5120 H   0  0  0  0  0  0  0  0  0  0  0  0
   -1.6739   44.2171   51.8469 H   0  0  0  0  0  0  0  0  0  0  0  0
   -2.6908   46.6281   52.5474 H   0  0  0  0  0  0  0  0  0  0  0  0
   -3.6507   45.0944   52.5288 H   0  0  0  0  0  0  0  0  0  0  0  0
   -2.2402   46.2694   54.9732 H   0  0  0  0  0  0  0  0  0  0  0  0
   -4.0131   46.3910   54.5987 H   0  0  0  0  0  0  0  0  0  0  0  0
   -4.1147   45.0612   56.9949 H   0  0  0  0  0  0  0  0  0  0  0  0
   -3.1328   43.2700   58.3922 H   0  0  0  0  0  0  0  0  0  0  0  0
   -3.9891   42.5503   56.9866 H   0  0  0  0  0  0  0  0  0  0  0  0
   -2.1961   42.6586   56.9866 H   0  0  0  0  0  0  0  0  0  0  0  0
   -3.0393   47.0964   57.6370 H   0  0  0  0  0  0  0  0  0  0  0  0
   -0.9828   48.3537   58.2777 H   0  0  0  0  0  0  0  0  0  0  0  0
    1.2626   47.2881   58.0400 H   0  0  0  0  0  0  0  0  0  0  0  0
    1.4525   44.9567   57.1700 H   0  0  0  0  0  0  0  0  0  0  0  0
   -0.5976   43.6895   56.5249 H   0  0  0  0  0  0  0  0  0  0  0  0
   -2.2867   42.6503   55.3707 H   0  0  0  0  0  0  0  0  0  0  0  0
   -3.1418   42.8929   53.7791 H   0  0  0  0  0  0  0  0  0  0  0  0
   -0.6230   44.3620   54.6780 H   0  0  0  0  0  0  0  0  0  0  0  0
   -0.6904   42.9728   53.5247 H   0  0  0  0  0  0  0  0  0  0  0  0
    7.3749   46.9982   50.4885 H   0  0  0  0  0  0  0  0  0  0  0  0
    9.6741   47.6946   51.1577 H   0  0  0  0  0  0  0  0  0  0  0  0
    8.8994   46.3857   55.2067 H   0  0  0  0  0  0  0  0  0  0  0  0
  1  2  1  0
  2  3  2  0
  3  4  1  0
  4  5  1  0
  5  6  1  0
  6  7  2  0
  6  8  1  0
  8  9  1  0
  9 10  1  0
 10 11  1  0
 11 12  1  0
 12 13  1  0
 13 14  1  0
 13 15  1  0
 15 16  2  0
 16 17  1  0
 17 18  2  0
 18 19  1  0
 19 20  2  0
 12 21  1  0
 21 22  1  0
  4 23  2  0
 23 24  1  0
 24 25  1  0
 25 26  2  0
 26 27  1  0
 27 28  2  0
 28 29  1  0
 28 30  1  0
 30 31  2  0
 31 32  1  0
 24  2  1  0
 31 25  1  0
 22  9  1  0
 20 15  1  0
  1 33  1  0
  1 34  1  0
  1 35  1  0
  3 36  1  0
  5 37  1  0
  8 38  1  0
  9 39  1  0
 10 40  1  0
 10 41  1  0
 11 42  1  0
 11 43  1  0
 13 44  1  1
 14 45  1  0
 14 46  1  0
 14 47  1  0
 16 48  1  0
 17 49  1  0
 18 50  1  0
 19 51  1  0
 20 52  1  0
 21 53  1  0
 21 54  1  0
 22 55  1  0
 22 56  1  0
 26 57  1  0
 27 58  1  0
 30 59  1  0
M  END
>  <meeko>  (5) 
{"is_sidechain": [false], "free_energy": -8.386, "intermolecular_energy": -11.086, "internal_energy": 0.217}

$$$$
