ligand_98_conformer_5_docked
     RDKit          3D

 49 51  0  0  0  0  0  0  0  0999 V2000
    9.4410   47.4770   54.4890 C   0  0  0  0  0  0  0  0  0  0  0  0
    8.8660   46.5560   53.4010 C   0  0  2  0  0  0  0  0  0  0  0  0
    9.8070   45.5410   53.1340 O   0  0  0  0  0  0  0  0  0  0  0  0
   10.4690   45.8770   51.9320 C   0  0  0  0  0  0  0  0  0  0  0  0
    9.8670   47.1460   51.3520 C   0  0  0  0  0  0  0  0  0  0  0  0
    8.5290   47.2440   52.0530 C   0  0  2  0  0  0  0  0  0  0  0  0
    8.0340   48.7010   52.2090 C   0  0  0  0  0  0  0  0  0  0  0  0
    7.5130   46.4440   51.3320 N   0  0  0  0  0  0  0  0  0  0  0  0
    6.3210   45.8920   51.9300 C   0  0  0  0  0  0  0  0  0  0  0  0
    6.0350   46.1430   53.1320 O   0  0  0  0  0  0  0  0  0  0  0  0
    5.4070   44.9710   51.1480 C   0  0  0  0  0  0  0  0  0  0  0  0
    4.1720   45.7340   50.6280 C   0  0  0  0  0  0  0  0  0  0  0  0
    3.1540   46.0040   51.7420 C   0  0  0  0  0  0  0  0  0  0  0  0
    2.9250   44.8110   52.5710 N   0  0  0  0  0  0  0  0  0  0  0  0
    1.9700   44.8790   53.6480 C   0  0  0  0  0  0  0  0  0  0  0  0
    0.6270   44.5350   53.4210 C   0  0  0  0  0  0  0  0  0  0  0  0
   -0.3080   44.6030   54.4570 C   0  0  0  0  0  0  0  0  0  0  0  0
    0.0900   45.0100   55.7350 C   0  0  0  0  0  0  0  0  0  0  0  0
   -0.8730   45.0790   56.8030 C   0  0  0  0  0  0  0  0  0  0  0  0
   -1.6480   45.1350   57.6610 N   0  0  0  0  0  0  0  0  0  0  0  0
    1.4270   45.3470   55.9740 C   0  0  0  0  0  0  0  0  0  0  0  0
    2.3660   45.2810   54.9390 C   0  0  0  0  0  0  0  0  0  0  0  0
    3.6630   45.5790   55.2040 F   0  0  0  0  0  0  0  0  0  0  0  0
    3.5340   43.5250   52.2030 C   0  0  0  0  0  0  0  0  0  0  0  0
    5.0400   43.6830   51.9390 C   0  0  0  0  0  0  0  0  0  0  0  0
    9.1894   47.0740   55.4811 H   0  0  0  0  0  0  0  0  0  0  0  0
   10.5344   47.5324   54.3823 H   0  0  0  0  0  0  0  0  0  0  0  0
    9.0107   48.4837   54.3823 H   0  0  0  0  0  0  0  0  0  0  0  0
    7.9139   46.1831   53.8064 H   0  0  0  0  0  0  0  0  0  0  0  0
   11.5375   46.0397   52.1364 H   0  0  0  0  0  0  0  0  0  0  0  0
   10.3514   45.0555   51.2100 H   0  0  0  0  0  0  0  0  0  0  0  0
   10.4957   48.0200   51.5775 H   0  0  0  0  0  0  0  0  0  0  0  0
    9.7795   47.1207   50.2558 H   0  0  0  0  0  0  0  0  0  0  0  0
    7.9503   48.9474   53.2778 H   0  0  0  0  0  0  0  0  0  0  0  0
    8.7502   49.3848   51.7301 H   0  0  0  0  0  0  0  0  0  0  0  0
    7.0494   48.8070   51.7301 H   0  0  0  0  0  0  0  0  0  0  0  0
    7.6650   46.2540   50.3180 H   0  0  0  0  0  0  0  0  0  0  0  0
    5.9629   44.6188   50.2665 H   0  0  0  0  0  0  0  0  0  0  0  0
    4.5000   46.6953   50.2058 H   0  0  0  0  0  0  0  0  0  0  0  0
    3.6836   45.1107   49.8645 H   0  0  0  0  0  0  0  0  0  0  0  0
    3.5322   46.8151   52.3815 H   0  0  0  0  0  0  0  0  0  0  0  0
    2.1991   46.2840   51.2732 H   0  0  0  0  0  0  0  0  0  0  0  0
    0.3090   44.2095   52.4196 H   0  0  0  0  0  0  0  0  0  0  0  0
   -1.3582   44.3362   54.2676 H   0  0  0  0  0  0  0  0  0  0  0  0
    1.7408   45.6649   56.9792 H   0  0  0  0  0  0  0  0  0  0  0  0
    3.3862   42.8090   53.0249 H   0  0  0  0  0  0  0  0  0  0  0  0
    3.0537   43.1608   51.2829 H   0  0  0  0  0  0  0  0  0  0  0  0
    5.5608   43.7106   52.9075 H   0  0  0  0  0  0  0  0  0  0  0  0
    5.3481   42.8279   51.3194 H   0  0  0  0  0  0  0  0  0  0  0  0
  1  2  1  0
  2  3  1  0
  3  4  1  0
  4  5  1  0
  5  6  1  0
  6  7  1  0
  6  8  1  6
  8  9  1  0
  9 10  2  0
  9 11  1  0
 11 12  1  0
 12 13  1  0
 13 14  1  0
 14 15  1  0
 15 16  2  0
 16 17  1  0
 17 18  2  0
 18 19  1  0
 19 20  3  0
 18 21  1  0
 21 22  2  0
 22 23  1  0
 14 24  1  0
 24 25  1  0
  6  2  1  0
 25 11  1  0
 22 15  1  0
  1 26  1  0
  1 27  1  0
  1 28  1  0
  2 29  1  1
  4 30  1  0
  4 31  1  0
  5 32  1  0
  5 33  1  0
  7 34  1  0
  7 35  1  0
  7 36  1  0
  8 37  1  0
 11 38  1  0
 12 39  1  0
 12 40  1  0
 13 41  1  0
 13 42  1  0
 16 43  1  0
 17 44  1  0
 21 45  1  0
 24 46  1  0
 24 47  1  0
 25 48  1  0
 25 49  1  0
M  END
>  <meeko>  (1) 
{"is_sidechain": [false], "free_energy": -8.999, "intermolecular_energy": -10.577, "internal_energy": -0.344}

$$$$
ligand_98_conformer_5_docked
     RDKit          3D

 49 51  0  0  0  0  0  0  0  0999 V2000
    9.4370   47.4160   54.5220 C   0  0  0  0  0  0  0  0  0  0  0  0
    8.8310   46.5190   53.4300 C   0  0  2  0  0  0  0  0  0  0  0  0
    9.7720   45.5230   53.1010 O   0  0  0  0  0  0  0  0  0  0  0  0
   10.3860   45.8990   51.8860 C   0  0  0  0  0  0  0  0  0  0  0  0
    9.7510   47.1760   51.3630 C   0  0  0  0  0  0  0  0  0  0  0  0
    8.4390   47.2410   52.1160 C   0  0  2  0  0  0  0  0  0  0  0  0
    7.9350   48.6870   52.3300 C   0  0  0  0  0  0  0  0  0  0  0  0
    7.4050   46.4500   51.4100 N   0  0  0  0  0  0  0  0  0  0  0  0
    6.3740   45.6760   52.0570 C   0  0  0  0  0  0  0  0  0  0  0  0
    6.2500   45.6990   53.3120 O   0  0  0  0  0  0  0  0  0  0  0  0
    5.4420   44.7870   51.2580 C   0  0  0  0  0  0  0  0  0  0  0  0
    4.2480   45.5950   50.7110 C   0  0  0  0  0  0  0  0  0  0  0  0
    3.2170   45.9060   51.8020 C   0  0  0  0  0  0  0  0  0  0  0  0
    2.9260   44.7240   52.6280 N   0  0  0  0  0  0  0  0  0  0  0  0
    1.9520   44.8300   53.6840 C   0  0  0  0  0  0  0  0  0  0  0  0
    2.3490   45.2290   54.9710 C   0  0  0  0  0  0  0  0  0  0  0  0
    1.4120   45.3290   56.0030 C   0  0  0  0  0  0  0  0  0  0  0  0
    0.0660   45.0370   55.7600 C   0  0  0  0  0  0  0  0  0  0  0  0
   -0.9000   45.1410   56.8230 C   0  0  0  0  0  0  0  0  0  0  0  0
   -1.6750   45.2240   57.6780 N   0  0  0  0  0  0  0  0  0  0  0  0
   -0.3420   44.6470   54.4790 C   0  0  0  0  0  0  0  0  0  0  0  0
    0.5930   44.5450   53.4430 C   0  0  0  0  0  0  0  0  0  0  0  0
    0.1680   44.1970   52.2020 F   0  0  0  0  0  0  0  0  0  0  0  0
    3.4940   43.4160   52.2750 C   0  0  0  0  0  0  0  0  0  0  0  0
    5.0100   43.5160   52.0430 C   0  0  0  0  0  0  0  0  0  0  0  0
    9.1692   47.0196   55.5125 H   0  0  0  0  0  0  0  0  0  0  0  0
   10.5319   47.4323   54.4173 H   0  0  0  0  0  0  0  0  0  0  0  0
    9.0434   48.4378   54.4173 H   0  0  0  0  0  0  0  0  0  0  0  0
    7.8979   46.1240   53.8582 H   0  0  0  0  0  0  0  0  0  0  0  0
   11.4595   46.0680   52.0562 H   0  0  0  0  0  0  0  0  0  0  0  0
   10.2502   45.0962   51.1464 H   0  0  0  0  0  0  0  0  0  0  0  0
   10.3793   48.0503   51.5883 H   0  0  0  0  0  0  0  0  0  0  0  0
    9.6229   47.1790   50.2705 H   0  0  0  0  0  0  0  0  0  0  0  0
    7.8627   48.8944   53.4079 H   0  0  0  0  0  0  0  0  0  0  0  0
    8.6400   49.3933   51.8672 H   0  0  0  0  0  0  0  0  0  0  0  0
    6.9438   48.8021   51.8672 H   0  0  0  0  0  0  0  0  0  0  0  0
    7.4190   46.4400   50.3670 H   0  0  0  0  0  0  0  0  0  0  0  0
    6.0027   44.4110   50.3895 H   0  0  0  0  0  0  0  0  0  0  0  0
    4.6212   46.5423   50.2946 H   0  0  0  0  0  0  0  0  0  0  0  0
    3.7527   44.9885   49.9384 H   0  0  0  0  0  0  0  0  0  0  0  0
    3.6113   46.7042   52.4481 H   0  0  0  0  0  0  0  0  0  0  0  0
    2.2836   46.2205   51.3123 H   0  0  0  0  0  0  0  0  0  0  0  0
    3.4053   45.4645   55.1680 H   0  0  0  0  0  0  0  0  0  0  0  0
    1.7338   45.6380   57.0085 H   0  0  0  0  0  0  0  0  0  0  0  0
   -1.4009   44.4200   54.2862 H   0  0  0  0  0  0  0  0  0  0  0  0
    3.3018   42.7078   53.0945 H   0  0  0  0  0  0  0  0  0  0  0  0
    3.0202   43.0686   51.3450 H   0  0  0  0  0  0  0  0  0  0  0  0
    5.5108   43.5262   53.0223 H   0  0  0  0  0  0  0  0  0  0  0  0
    5.2986   42.6482   51.4317 H   0  0  0  0  0  0  0  0  0  0  0  0
  1  2  1  0
  2  3  1  0
  3  4  1  0
  4  5  1  0
  5  6  1  0
  6  7  1  0
  6  8  1  6
  8  9  1  0
  9 10  2  0
  9 11  1  0
 11 12  1  0
 12 13  1  0
 13 14  1  0
 14 15  1  0
 15 16  2  0
 16 17  1  0
 17 18  2  0
 18 19  1  0
 19 20  3  0
 18 21  1  0
 21 22  2  0
 22 23  1  0
 14 24  1  0
 24 25  1  0
  6  2  1  0
 25 11  1  0
 22 15  1  0
  1 26  1  0
  1 27  1  0
  1 28  1  0
  2 29  1  1
  4 30  1  0
  4 31  1  0
  5 32  1  0
  5 33  1  0
  7 34  1  0
  7 35  1  0
  7 36  1  0
  8 37  1  0
 11 38  1  0
 12 39  1  0
 12 40  1  0
 13 41  1  0
 13 42  1  0
 16 43  1  0
 17 44  1  0
 21 45  1  0
 24 46  1  0
 24 47  1  0
 25 48  1  0
 25 49  1  0
M  END
>  <meeko>  (2) 
{"is_sidechain": [false], "free_energy": -8.724, "intermolecular_energy": -10.356, "internal_energy": -0.243}

$$$$
ligand_98_conformer_5_docked
     RDKit          3D

 49 51  0  0  0  0  0  0  0  0999 V2000
    8.4210   48.8410   51.2380 C   0  0  0  0  0  0  0  0  0  0  0  0
    8.0620   48.0320   52.4960 C   0  0  2  0  0  0  0  0  0  0  0  0
    8.9790   48.3640   53.5140 O   0  0  0  0  0  0  0  0  0  0  0  0
    9.9200   47.3140   53.5990 C   0  0  0  0  0  0  0  0  0  0  0  0
    9.5450   46.2070   52.6280 C   0  0  0  0  0  0  0  0  0  0  0  0
    8.0880   46.4920   52.3290 C   0  0  2  0  0  0  0  0  0  0  0  0
    7.6560   46.0140   50.9230 C   0  0  0  0  0  0  0  0  0  0  0  0
    7.2240   45.8700   53.3570 N   0  0  0  0  0  0  0  0  0  0  0  0
    6.0490   46.4840   53.9280 C   0  0  0  0  0  0  0  0  0  0  0  0
    5.6400   47.5980   53.5020 O   0  0  0  0  0  0  0  0  0  0  0  0
    5.3020   45.8320   55.0740 C   0  0  0  0  0  0  0  0  0  0  0  0
    5.2920   44.2970   54.9200 C   0  0  0  0  0  0  0  0  0  0  0  0
    4.3010   43.8340   53.8460 C   0  0  0  0  0  0  0  0  0  0  0  0
    3.0060   44.5200   53.9690 N   0  0  0  0  0  0  0  0  0  0  0  0
    1.9430   44.1810   53.0570 C   0  0  0  0  0  0  0  0  0  0  0  0
    1.4370   42.8720   53.0210 C   0  0  0  0  0  0  0  0  0  0  0  0
    0.4110   42.5320   52.1360 C   0  0  0  0  0  0  0  0  0  0  0  0
   -0.1260   43.4990   51.2790 C   0  0  0  0  0  0  0  0  0  0  0  0
   -1.1840   43.1480   50.3670 C   0  0  0  0  0  0  0  0  0  0  0  0
   -2.0340   42.8660   49.6340 N   0  0  0  0  0  0  0  0  0  0  0  0
    0.3660   44.8090   51.3120 C   0  0  0  0  0  0  0  0  0  0  0  0
    1.3940   45.1520   52.1960 C   0  0  0  0  0  0  0  0  0  0  0  0
    1.8310   46.4370   52.2330 F   0  0  0  0  0  0  0  0  0  0  0  0
    2.7460   45.4130   55.1070 C   0  0  0  0  0  0  0  0  0  0  0  0
    3.8830   46.4330   55.2800 C   0  0  0  0  0  0  0  0  0  0  0  0
    8.8506   49.8091   51.5349 H   0  0  0  0  0  0  0  0  0  0  0  0
    9.1555   48.2819   50.6397 H   0  0  0  0  0  0  0  0  0  0  0  0
    7.5136   49.0105   50.6397 H   0  0  0  0  0  0  0  0  0  0  0  0
    7.0216   48.3007   52.7311 H   0  0  0  0  0  0  0  0  0  0  0  0
   10.9194   47.6980   53.3467 H   0  0  0  0  0  0  0  0  0  0  0  0
    9.9248   46.9126   54.6231 H   0  0  0  0  0  0  0  0  0  0  0  0
   10.1538   46.2609   51.7134 H   0  0  0  0  0  0  0  0  0  0  0  0
    9.7140   45.1991   53.0349 H   0  0  0  0  0  0  0  0  0  0  0  0
    6.9214   45.2012   51.0217 H   0  0  0  0  0  0  0  0  0  0  0  0
    7.2033   46.8526   50.3736 H   0  0  0  0  0  0  0  0  0  0  0  0
    8.5360   45.6482   50.3736 H   0  0  0  0  0  0  0  0  0  0  0  0
    7.4780   44.9200   53.7060 H   0  0  0  0  0  0  0  0  0  0  0  0
    5.8482   46.0603   56.0011 H   0  0  0  0  0  0  0  0  0  0  0  0
    6.3015   43.9616   54.6400 H   0  0  0  0  0  0  0  0  0  0  0  0
    4.9801   43.8612   55.8806 H   0  0  0  0  0  0  0  0  0  0  0  0
    4.7249   44.0479   52.8538 H   0  0  0  0  0  0  0  0  0  0  0  0
    4.1315   42.7552   53.9780 H   0  0  0  0  0  0  0  0  0  0  0  0
    1.8517   42.1080   53.6950 H   0  0  0  0  0  0  0  0  0  0  0  0
    0.0246   41.5024   52.1128 H   0  0  0  0  0  0  0  0  0  0  0  0
   -0.0571   45.5708   50.6407 H   0  0  0  0  0  0  0  0  0  0  0  0
    1.8031   45.9520   54.9328 H   0  0  0  0  0  0  0  0  0  0  0  0
    2.6799   44.8046   56.0210 H   0  0  0  0  0  0  0  0  0  0  0  0
    3.7388   47.2407   54.5473 H   0  0  0  0  0  0  0  0  0  0  0  0
    3.8352   46.7929   56.3183 H   0  0  0  0  0  0  0  0  0  0  0  0
  1  2  1  0
  2  3  1  0
  3  4  1  0
  4  5  1  0
  5  6  1  0
  6  7  1  0
  6  8  1  1
  8  9  1  0
  9 10  2  0
  9 11  1  0
 11 12  1  0
 12 13  1  0
 13 14  1  0
 14 15  1  0
 15 16  2  0
 16 17  1  0
 17 18  2  0
 18 19  1  0
 19 20  3  0
 18 21  1  0
 21 22  2  0
 22 23  1  0
 14 24  1  0
 24 25  1  0
  6  2  1  0
 25 11  1  0
 22 15  1  0
  1 26  1  0
  1 27  1  0
  1 28  1  0
  2 29  1  1
  4 30  1  0
  4 31  1  0
  5 32  1  0
  5 33  1  0
  7 34  1  0
  7 35  1  0
  7 36  1  0
  8 37  1  0
 11 38  1  0
 12 39  1  0
 12 40  1  0
 13 41  1  0
 13 42  1  0
 16 43  1  0
 17 44  1  0
 21 45  1  0
 24 46  1  0
 24 47  1  0
 25 48  1  0
 25 49  1  0
M  END
>  <meeko>  (3) 
{"is_sidechain": [false], "free_energy": -7.901, "intermolecular_energy": -9.453, "internal_energy": -0.178}

$$$$
ligand_98_conformer_5_docked
     RDKit          3D

 49 51  0  0  0  0  0  0  0  0999 V2000
    8.1160   48.3690   52.4620 C   0  0  0  0  0  0  0  0  0  0  0  0
    6.7600   47.6490   52.3680 C   0  0  2  0  0  0  0  0  0  0  0  0
    6.0300   47.9230   53.5420 O   0  0  0  0  0  0  0  0  0  0  0  0
    6.1190   46.7860   54.3760 C   0  0  0  0  0  0  0  0  0  0  0  0
    6.8920   45.6870   53.6650 C   0  0  0  0  0  0  0  0  0  0  0  0
    6.8310   46.1090   52.2120 C   0  0  2  0  0  0  0  0  0  0  0  0
    8.0490   45.6260   51.3910 C   0  0  0  0  0  0  0  0  0  0  0  0
    5.5810   45.6190   51.5890 N   0  0  0  0  0  0  0  0  0  0  0  0
    4.8420   44.4580   52.0250 C   0  0  0  0  0  0  0  0  0  0  0  0
    5.2010   43.8220   53.0530 O   0  0  0  0  0  0  0  0  0  0  0  0
    3.6480   43.9500   51.2420 C   0  0  0  0  0  0  0  0  0  0  0  0
    2.6970   45.1090   50.8800 C   0  0  0  0  0  0  0  0  0  0  0  0
    1.8690   45.5710   52.0850 C   0  0  0  0  0  0  0  0  0  0  0  0
    1.3110   44.4330   52.8310 N   0  0  0  0  0  0  0  0  0  0  0  0
    0.4780   44.6880   53.9780 C   0  0  0  0  0  0  0  0  0  0  0  0
   -0.9190   44.7390   53.8360 C   0  0  0  0  0  0  0  0  0  0  0  0
   -1.7350   44.9910   54.9420 C   0  0  0  0  0  0  0  0  0  0  0  0
   -1.1650   45.1900   56.2040 C   0  0  0  0  0  0  0  0  0  0  0  0
   -2.0070   45.4490   57.3440 C   0  0  0  0  0  0  0  0  0  0  0  0
   -2.6840   45.6580   58.2590 N   0  0  0  0  0  0  0  0  0  0  0  0
    0.2250   45.1330   56.3580 C   0  0  0  0  0  0  0  0  0  0  0  0
    1.0450   44.8820   55.2530 C   0  0  0  0  0  0  0  0  0  0  0  0
    2.3880   44.7980   55.4330 F   0  0  0  0  0  0  0  0  0  0  0  0
    1.4630   43.0650   52.3160 C   0  0  0  0  0  0  0  0  0  0  0  0
    2.9270   42.7700   51.9540 C   0  0  0  0  0  0  0  0  0  0  0  0
    8.3833   48.5109   53.5196 H   0  0  0  0  0  0  0  0  0  0  0  0
    8.8884   47.7622   51.9668 H   0  0  0  0  0  0  0  0  0  0  0  0
    8.0460   49.3488   51.9668 H   0  0  0  0  0  0  0  0  0  0  0  0
    6.2871   48.0317   51.4515 H   0  0  0  0  0  0  0  0  0  0  0  0
    6.6395   47.0554   55.3069 H   0  0  0  0  0  0  0  0  0  0  0  0
    5.1062   46.4258   54.6095 H   0  0  0  0  0  0  0  0  0  0  0  0
    7.9322   45.6428   54.0200 H   0  0  0  0  0  0  0  0  0  0  0  0
    6.4777   44.6834   53.8415 H   0  0  0  0  0  0  0  0  0  0  0  0
    8.8497   45.3085   52.0751 H   0  0  0  0  0  0  0  0  0  0  0  0
    7.7508   44.7781   50.7569 H   0  0  0  0  0  0  0  0  0  0  0  0
    8.4130   46.4479   50.7569 H   0  0  0  0  0  0  0  0  0  0  0  0
    5.2010   46.1410   50.7700 H   0  0  0  0  0  0  0  0  0  0  0  0
    4.0217   43.5306   50.2962 H   0  0  0  0  0  0  0  0  0  0  0  0
    3.2942   45.9570   50.5134 H   0  0  0  0  0  0  0  0  0  0  0  0
    2.0012   44.7488   50.1079 H   0  0  0  0  0  0  0  0  0  0  0  0
    2.5139   46.1560   52.7573 H   0  0  0  0  0  0  0  0  0  0  0  0
    1.0321   46.1798   51.7124 H   0  0  0  0  0  0  0  0  0  0  0  0
   -1.3735   44.5794   52.8471 H   0  0  0  0  0  0  0  0  0  0  0  0
   -2.8274   45.0330   54.8201 H   0  0  0  0  0  0  0  0  0  0  0  0
    0.6737   45.2860   57.3506 H   0  0  0  0  0  0  0  0  0  0  0  0
    1.1327   42.3524   53.0861 H   0  0  0  0  0  0  0  0  0  0  0  0
    0.8511   42.9635   51.4076 H   0  0  0  0  0  0  0  0  0  0  0  0
    3.4732   42.5381   52.8802 H   0  0  0  0  0  0  0  0  0  0  0  0
    2.9185   41.9268   51.2476 H   0  0  0  0  0  0  0  0  0  0  0  0
  1  2  1  0
  2  3  1  0
  3  4  1  0
  4  5  1  0
  5  6  1  0
  6  7  1  0
  6  8  1  6
  8  9  1  0
  9 10  2  0
  9 11  1  0
 11 12  1  0
 12 13  1  0
 13 14  1  0
 14 15  1  0
 15 16  2  0
 16 17  1  0
 17 18  2  0
 18 19  1  0
 19 20  3  0
 18 21  1  0
 21 22  2  0
 22 23  1  0
 14 24  1  0
 24 25  1  0
  6  2  1  0
 25 11  1  0
 22 15  1  0
  1 26  1  0
  1 27  1  0
  1 28  1  0
  2 29  1  6
  4 30  1  0
  4 31  1  0
  5 32  1  0
  5 33  1  0
  7 34  1  0
  7 35  1  0
  7 36  1  0
  8 37  1  0
 11 38  1  0
 12 39  1  0
 12 40  1  0
 13 41  1  0
 13 42  1  0
 16 43  1  0
 17 44  1  0
 21 45  1  0
 24 46  1  0
 24 47  1  0
 25 48  1  0
 25 49  1  0
M  END
>  <meeko>  (4) 
{"is_sidechain": [false], "free_energy": -7.647, "intermolecular_energy": -9.341, "internal_energy": 0.008}

$$$$
ligand_98_conformer_5_docked
     RDKit          3D

 49 51  0  0  0  0  0  0  0  0999 V2000
   -1.3590   46.4850   57.2440 C   0  0  0  0  0  0  0  0  0  0  0  0
   -1.2640   46.0770   55.7650 C   0  0  2  0  0  0  0  0  0  0  0  0
   -2.5380   45.6500   55.3390 O   0  0  0  0  0  0  0  0  0  0  0  0
   -2.5280   44.2380   55.3110 C   0  0  0  0  0  0  0  0  0  0  0  0
   -1.1430   43.7260   55.6710 C   0  0  0  0  0  0  0  0  0  0  0  0
   -0.2620   44.9370   55.4500 C   0  0  2  0  0  0  0  0  0  0  0  0
    0.9910   44.9470   56.3570 C   0  0  0  0  0  0  0  0  0  0  0  0
    0.1480   45.0200   54.0300 N   0  0  0  0  0  0  0  0  0  0  0  0
    0.8130   43.9680   53.3000 C   0  0  0  0  0  0  0  0  0  0  0  0
    1.0160   42.8470   53.8400 O   0  0  0  0  0  0  0  0  0  0  0  0
    1.3180   44.1910   51.8890 C   0  0  0  0  0  0  0  0  0  0  0  0
    2.4520   43.2030   51.5500 C   0  0  0  0  0  0  0  0  0  0  0  0
    3.7750   43.5950   52.2190 C   0  0  0  0  0  0  0  0  0  0  0  0
    4.0520   45.0320   52.0770 N   0  0  0  0  0  0  0  0  0  0  0  0
    5.2730   45.5680   52.6210 C   0  0  0  0  0  0  0  0  0  0  0  0
    5.3940   45.7810   54.0040 C   0  0  0  0  0  0  0  0  0  0  0  0
    6.5730   46.3060   54.5400 C   0  0  0  0  0  0  0  0  0  0  0  0
    7.6470   46.6190   53.7010 C   0  0  0  0  0  0  0  0  0  0  0  0
    8.8620   47.1590   54.2540 C   0  0  0  0  0  0  0  0  0  0  0  0
    9.8380   47.5940   54.6990 N   0  0  0  0  0  0  0  0  0  0  0  0
    7.5400   46.4030   52.3220 C   0  0  0  0  0  0  0  0  0  0  0  0
    6.3610   45.8790   51.7820 C   0  0  0  0  0  0  0  0  0  0  0  0
    6.2940   45.6460   50.4460 F   0  0  0  0  0  0  0  0  0  0  0  0
    3.1790   45.8760   51.2480 C   0  0  0  0  0  0  0  0  0  0  0  0
    1.7010   45.6740   51.6200 C   0  0  0  0  0  0  0  0  0  0  0  0
   -1.1554   45.6105   57.8794 H   0  0  0  0  0  0  0  0  0  0  0  0
   -0.6201   47.2719   57.4555 H   0  0  0  0  0  0  0  0  0  0  0  0
   -2.3695   46.8646   57.4555 H   0  0  0  0  0  0  0  0  0  0  0  0
   -0.8955   46.9693   55.2378 H   0  0  0  0  0  0  0  0  0  0  0  0
   -3.2597   43.8531   56.0366 H   0  0  0  0  0  0  0  0  0  0  0  0
   -2.7916   43.8928   54.3004 H   0  0  0  0  0  0  0  0  0  0  0  0
   -1.1043   43.3954   56.7194 H   0  0  0  0  0  0  0  0  0  0  0  0
   -0.8361   42.8533   55.0759 H   0  0  0  0  0  0  0  0  0  0  0  0
    0.6799   44.9445   57.4121 H   0  0  0  0  0  0  0  0  0  0  0  0
    1.5992   44.0537   56.1519 H   0  0  0  0  0  0  0  0  0  0  0  0
    1.5849   45.8499   56.1519 H   0  0  0  0  0  0  0  0  0  0  0  0
   -0.0480   45.9040   53.5110 H   0  0  0  0  0  0  0  0  0  0  0  0
    0.4875   43.9789   51.1995 H   0  0  0  0  0  0  0  0  0  0  0  0
    2.1634   42.1992   51.8951 H   0  0  0  0  0  0  0  0  0  0  0  0
    2.6038   43.2211   50.4607 H   0  0  0  0  0  0  0  0  0  0  0  0
    3.7205   43.3466   53.2892 H   0  0  0  0  0  0  0  0  0  0  0  0
    4.5862   43.0393   51.7259 H   0  0  0  0  0  0  0  0  0  0  0  0
    4.5546   45.5327   54.6701 H   0  0  0  0  0  0  0  0  0  0  0  0
    6.6563   46.4733   55.6240 H   0  0  0  0  0  0  0  0  0  0  0  0
    8.3853   46.6460   51.6614 H   0  0  0  0  0  0  0  0  0  0  0  0
    3.4475   46.9315   51.4021 H   0  0  0  0  0  0  0  0  0  0  0  0
    3.3166   45.5928   50.1940 H   0  0  0  0  0  0  0  0  0  0  0  0
    1.4893   46.2570   52.5284 H   0  0  0  0  0  0  0  0  0  0  0  0
    1.1053   46.0071   50.7573 H   0  0  0  0  0  0  0  0  0  0  0  0
  1  2  1  0
  2  3  1  0
  3  4  1  0
  4  5  1  0
  5  6  1  0
  6  7  1  0
  6  8  1  6
  8  9  1  0
  9 10  2  0
  9 11  1  0
 11 12  1  0
 12 13  1  0
 13 14  1  0
 14 15  1  0
 15 16  2  0
 16 17  1  0
 17 18  2  0
 18 19  1  0
 19 20  3  0
 18 21  1  0
 21 22  2  0
 22 23  1  0
 14 24  1  0
 24 25  1  0
  6  2  1  0
 25 11  1  0
 22 15  1  0
  1 26  1  0
  1 27  1  0
  1 28  1  0
  2 29  1  6
  4 30  1  0
  4 31  1  0
  5 32  1  0
  5 33  1  0
  7 34  1  0
  7 35  1  0
  7 36  1  0
  8 37  1  0
 11 38  1  0
 12 39  1  0
 12 40  1  0
 13 41  1  0
 13 42  1  0
 16 43  1  0
 17 44  1  0
 21 45  1  0
 24 46  1  0
 24 47  1  0
 25 48  1  0
 25 49  1  0
M  END
>  <meeko>  (5) 
{"is_sidechain": [false], "free_energy": -7.506, "intermolecular_energy": -8.861, "internal_energy": -0.305}

$$$$
