ligand_35_conformer_5_docked
     RDKit          3D

 41 43  0  0  0  0  0  0  0  0999 V2000
   10.2720   46.5660   52.2420 C   0  0  0  0  0  0  0  0  0  0  0  0
    9.3350   47.3210   53.0030 O   0  0  0  0  0  0  0  0  0  0  0  0
    7.9770   46.9950   53.1360 C   0  0  0  0  0  0  0  0  0  0  0  0
    7.3420   46.9010   54.3890 C   0  0  0  0  0  0  0  0  0  0  0  0
    5.9860   46.5720   54.4690 C   0  0  0  0  0  0  0  0  0  0  0  0
    5.2420   46.3310   53.3020 C   0  0  0  0  0  0  0  0  0  0  0  0
    3.8080   45.9820   53.3810 C   0  0  0  0  0  0  0  0  0  0  0  0
    3.3270   44.9450   54.1010 N   0  0  0  0  0  0  0  0  0  0  0  0
    2.0010   45.0120   53.8830 C   0  0  0  0  0  0  0  0  0  0  0  0
    1.0100   44.0290   54.4290 C   0  0  0  0  0  0  0  0  0  0  0  0
    1.0570   42.7060   53.6570 C   0  0  0  0  0  0  0  0  0  0  0  0
    2.3220   42.5470   52.9390 N   0  0  0  0  0  0  0  0  0  0  0  0
    2.3910   42.6910   51.5120 C   0  0  0  0  0  0  0  0  0  0  0  0
    1.4010   43.1590   50.8850 O   0  0  0  0  0  0  0  0  0  0  0  0
    3.6130   42.3130   50.7620 C   0  0  0  0  0  0  0  0  0  0  0  0
    3.6250   41.1580   49.9610 C   0  0  0  0  0  0  0  0  0  0  0  0
    4.7480   40.8050   49.2790 N   0  0  0  0  0  0  0  0  0  0  0  0
    5.8880   41.5410   49.3480 C   0  0  0  0  0  0  0  0  0  0  0  0
    5.9300   42.6890   50.1400 C   0  0  0  0  0  0  0  0  0  0  0  0
    7.0690   43.4190   50.2240 F   0  0  0  0  0  0  0  0  0  0  0  0
    4.7920   43.0740   50.8510 C   0  0  0  0  0  0  0  0  0  0  0  0
    1.7220   46.0640   53.0410 C   0  0  0  0  0  0  0  0  0  0  0  0
    2.8600   46.6450   52.7530 O   0  0  0  0  0  0  0  0  0  0  0  0
    5.8780   46.4240   52.0550 C   0  0  0  0  0  0  0  0  0  0  0  0
    7.2340   46.7530   51.9750 C   0  0  0  0  0  0  0  0  0  0  0  0
   10.9449   46.0238   52.9225 H   0  0  0  0  0  0  0  0  0  0  0  0
    9.7340   45.8461   51.6078 H   0  0  0  0  0  0  0  0  0  0  0  0
   10.8610   47.2448   51.6078 H   0  0  0  0  0  0  0  0  0  0  0  0
    7.9155   47.0873   55.3090 H   0  0  0  0  0  0  0  0  0  0  0  0
    5.4981   46.5013   55.4523 H   0  0  0  0  0  0  0  0  0  0  0  0
    1.2423   43.8355   55.4866 H   0  0  0  0  0  0  0  0  0  0  0  0
    0.0020   44.4569   54.3247 H   0  0  0  0  0  0  0  0  0  0  0  0
    0.9424   41.8738   54.3672 H   0  0  0  0  0  0  0  0  0  0  0  0
    0.2405   42.7081   52.9199 H   0  0  0  0  0  0  0  0  0  0  0  0
    3.1990   42.3660   53.4760 H   0  0  0  0  0  0  0  0  0  0  0  0
    2.7210   40.5359   49.8851 H   0  0  0  0  0  0  0  0  0  0  0  0
    6.7776   41.2319   48.7796 H   0  0  0  0  0  0  0  0  0  0  0  0
    4.8177   43.9745   51.4822 H   0  0  0  0  0  0  0  0  0  0  0  0
    0.7275   46.3618   52.6772 H   0  0  0  0  0  0  0  0  0  0  0  0
    5.3058   46.2368   51.1344 H   0  0  0  0  0  0  0  0  0  0  0  0
    7.7213   46.8223   50.9913 H   0  0  0  0  0  0  0  0  0  0  0  0
  1  2  1  0
  2  3  1  0
  3  4  2  0
  4  5  1  0
  5  6  2  0
  6  7  1  0
  7  8  2  0
  8  9  1  0
  9 10  1  0
 10 11  1  0
 11 12  1  0
 12 13  1  0
 13 14  2  0
 13 15  1  0
 15 16  2  0
 16 17  1  0
 17 18  2  0
 18 19  1  0
 19 20  1  0
 19 21  2  0
  9 22  2  0
 22 23  1  0
  6 24  1  0
 24 25  2  0
 25  3  1  0
 23  7  1  0
 21 15  1  0
  1 26  1  0
  1 27  1  0
  1 28  1  0
  4 29  1  0
  5 30  1  0
 10 31  1  0
 10 32  1  0
 11 33  1  0
 11 34  1  0
 12 35  1  0
 16 36  1  0
 18 37  1  0
 21 38  1  0
 22 39  1  0
 24 40  1  0
 25 41  1  0
M  END
>  <meeko>  (1) 
{"is_sidechain": [false], "free_energy": -8.326, "intermolecular_energy": -11.246, "internal_energy": -1.317}

$$$$
ligand_35_conformer_5_docked
     RDKit          3D

 41 43  0  0  0  0  0  0  0  0999 V2000
    0.5430   45.1710   56.9780 C   0  0  0  0  0  0  0  0  0  0  0  0
    0.8030   45.6470   55.6620 O   0  0  0  0  0  0  0  0  0  0  0  0
    1.4880   44.9190   54.6780 C   0  0  0  0  0  0  0  0  0  0  0  0
    2.7620   45.2940   54.2110 C   0  0  0  0  0  0  0  0  0  0  0  0
    3.4040   44.5350   53.2280 C   0  0  0  0  0  0  0  0  0  0  0  0
    2.7870   43.3910   52.6950 C   0  0  0  0  0  0  0  0  0  0  0  0
    3.4610   42.5860   51.6550 C   0  0  0  0  0  0  0  0  0  0  0  0
    4.7880   42.6380   51.4080 N   0  0  0  0  0  0  0  0  0  0  0  0
    4.9460   41.7550   50.4050 C   0  0  0  0  0  0  0  0  0  0  0  0
    6.2540   41.4820   49.7260 C   0  0  0  0  0  0  0  0  0  0  0  0
    6.7090   42.6860   48.8930 C   0  0  0  0  0  0  0  0  0  0  0  0
    6.7630   43.9070   49.6980 N   0  0  0  0  0  0  0  0  0  0  0  0
    8.0130   44.5400   50.0080 C   0  0  0  0  0  0  0  0  0  0  0  0
    9.0630   44.1660   49.4170 O   0  0  0  0  0  0  0  0  0  0  0  0
    8.0910   45.6380   51.0010 C   0  0  0  0  0  0  0  0  0  0  0  0
    9.3390   46.1400   51.4090 C   0  0  0  0  0  0  0  0  0  0  0  0
    9.4120   47.1420   52.3260 N   0  0  0  0  0  0  0  0  0  0  0  0
    8.2980   47.6860   52.8820 C   0  0  0  0  0  0  0  0  0  0  0  0
    7.0360   47.2130   52.5190 C   0  0  0  0  0  0  0  0  0  0  0  0
    5.9220   47.7420   53.0800 F   0  0  0  0  0  0  0  0  0  0  0  0
    6.9320   46.1850   51.5800 C   0  0  0  0  0  0  0  0  0  0  0  0
    3.7270   41.2110   50.0700 C   0  0  0  0  0  0  0  0  0  0  0  0
    2.8320   41.7430   50.8650 O   0  0  0  0  0  0  0  0  0  0  0  0
    1.5170   43.0210   53.1620 C   0  0  0  0  0  0  0  0  0  0  0  0
    0.8750   43.7790   54.1450 C   0  0  0  0  0  0  0  0  0  0  0  0
    0.9357   45.8899   57.7122 H   0  0  0  0  0  0  0  0  0  0  0  0
   -0.5420   45.0582   57.1194 H   0  0  0  0  0  0  0  0  0  0  0  0
    1.0344   44.1971   57.1194 H   0  0  0  0  0  0  0  0  0  0  0  0
    3.2544   46.1880   54.6213 H   0  0  0  0  0  0  0  0  0  0  0  0
    4.3994   44.8358   52.8693 H   0  0  0  0  0  0  0  0  0  0  0  0
    7.0160   41.2654   50.4892 H   0  0  0  0  0  0  0  0  0  0  0  0
    6.1237   40.6221   49.0525 H   0  0  0  0  0  0  0  0  0  0  0  0
    7.7106   42.4813   48.4868 H   0  0  0  0  0  0  0  0  0  0  0  0
    5.9810   42.8394   48.0828 H   0  0  0  0  0  0  0  0  0  0  0  0
    5.8730   44.3500   50.0200 H   0  0  0  0  0  0  0  0  0  0  0  0
   10.2625   45.7198   50.9840 H   0  0  0  0  0  0  0  0  0  0  0  0
    8.3906   48.4986   53.6176 H   0  0  0  0  0  0  0  0  0  0  0  0
    5.9416   45.8022   51.2925 H   0  0  0  0  0  0  0  0  0  0  0  0
    3.5391   40.4676   49.2813 H   0  0  0  0  0  0  0  0  0  0  0  0
    1.0230   42.1280   52.7516 H   0  0  0  0  0  0  0  0  0  0  0  0
   -0.1204   43.4773   54.5029 H   0  0  0  0  0  0  0  0  0  0  0  0
  1  2  1  0
  2  3  1  0
  3  4  2  0
  4  5  1  0
  5  6  2  0
  6  7  1  0
  7  8  2  0
  8  9  1  0
  9 10  1  0
 10 11  1  0
 11 12  1  0
 12 13  1  0
 13 14  2  0
 13 15  1  0
 15 16  2  0
 16 17  1  0
 17 18  2  0
 18 19  1  0
 19 20  1  0
 19 21  2  0
  9 22  2  0
 22 23  1  0
  6 24  1  0
 24 25  2  0
 25  3  1  0
 23  7  1  0
 21 15  1  0
  1 26  1  0
  1 27  1  0
  1 28  1  0
  4 29  1  0
  5 30  1  0
 10 31  1  0
 10 32  1  0
 11 33  1  0
 11 34  1  0
 12 35  1  0
 16 36  1  0
 18 37  1  0
 21 38  1  0
 22 39  1  0
 24 40  1  0
 25 41  1  0
M  END
>  <meeko>  (2) 
{"is_sidechain": [false], "free_energy": -7.933, "intermolecular_energy": -10.89, "internal_energy": -1.144}

$$$$
ligand_35_conformer_5_docked
     RDKit          3D

 41 43  0  0  0  0  0  0  0  0999 V2000
    0.1350   45.1970   55.3660 C   0  0  0  0  0  0  0  0  0  0  0  0
    1.5480   45.0320   55.4320 O   0  0  0  0  0  0  0  0  0  0  0  0
    2.3360   44.5300   54.3850 C   0  0  0  0  0  0  0  0  0  0  0  0
    1.8490   43.5900   53.4570 C   0  0  0  0  0  0  0  0  0  0  0  0
    2.6740   43.1190   52.4310 C   0  0  0  0  0  0  0  0  0  0  0  0
    3.9970   43.5780   52.3150 C   0  0  0  0  0  0  0  0  0  0  0  0
    4.8740   43.0830   51.2340 C   0  0  0  0  0  0  0  0  0  0  0  0
    5.6230   43.8870   50.4480 N   0  0  0  0  0  0  0  0  0  0  0  0
    6.2450   43.0190   49.6290 C   0  0  0  0  0  0  0  0  0  0  0  0
    7.1650   43.4260   48.5170 C   0  0  0  0  0  0  0  0  0  0  0  0
    8.4810   43.9890   49.0640 C   0  0  0  0  0  0  0  0  0  0  0  0
    8.2460   44.9970   50.0990 N   0  0  0  0  0  0  0  0  0  0  0  0
    9.2780   45.3660   51.0260 C   0  0  0  0  0  0  0  0  0  0  0  0
   10.4610   44.9750   50.8290 O   0  0  0  0  0  0  0  0  0  0  0  0
    8.9800   46.2130   52.2060 C   0  0  0  0  0  0  0  0  0  0  0  0
    7.7000   46.7670   52.3780 C   0  0  0  0  0  0  0  0  0  0  0  0
    7.4280   47.5510   53.4560 N   0  0  0  0  0  0  0  0  0  0  0  0
    8.3710   47.8310   54.3930 C   0  0  0  0  0  0  0  0  0  0  0  0
    9.6600   47.3150   54.2610 C   0  0  0  0  0  0  0  0  0  0  0  0
   10.6090   47.6020   55.1850 F   0  0  0  0  0  0  0  0  0  0  0  0
    9.9670   46.5080   53.1640 C   0  0  0  0  0  0  0  0  0  0  0  0
    5.8510   41.7350   49.9290 C   0  0  0  0  0  0  0  0  0  0  0  0
    5.0070   41.8100   50.9280 O   0  0  0  0  0  0  0  0  0  0  0  0
    4.4790   44.5140   53.2420 C   0  0  0  0  0  0  0  0  0  0  0  0
    3.6540   44.9840   54.2670 C   0  0  0  0  0  0  0  0  0  0  0  0
   -0.2765   45.2451   56.3850 H   0  0  0  0  0  0  0  0  0  0  0  0
   -0.1008   46.1288   54.8310 H   0  0  0  0  0  0  0  0  0  0  0  0
   -0.3091   44.3446   54.8310 H   0  0  0  0  0  0  0  0  0  0  0  0
    0.8148   43.2244   53.5394 H   0  0  0  0  0  0  0  0  0  0  0  0
    2.2850   42.3847   51.7103 H   0  0  0  0  0  0  0  0  0  0  0  0
    7.3829   42.5474   47.8920 H   0  0  0  0  0  0  0  0  0  0  0  0
    6.6702   44.2101   47.9252 H   0  0  0  0  0  0  0  0  0  0  0  0
    9.0701   43.1658   49.4944 H   0  0  0  0  0  0  0  0  0  0  0  0
    9.0224   44.4670   48.2343 H   0  0  0  0  0  0  0  0  0  0  0  0
    7.3250   45.4870   50.1390 H   0  0  0  0  0  0  0  0  0  0  0  0
    6.9131   46.5654   51.6363 H   0  0  0  0  0  0  0  0  0  0  0  0
    8.1179   48.4647   55.2558 H   0  0  0  0  0  0  0  0  0  0  0  0
   10.9828   46.1020   53.0485 H   0  0  0  0  0  0  0  0  0  0  0  0
    6.1832   40.8162   49.4236 H   0  0  0  0  0  0  0  0  0  0  0  0
    5.5131   44.8803   53.1614 H   0  0  0  0  0  0  0  0  0  0  0  0
    4.0443   45.7176   54.9877 H   0  0  0  0  0  0  0  0  0  0  0  0
  1  2  1  0
  2  3  1  0
  3  4  2  0
  4  5  1  0
  5  6  2  0
  6  7  1  0
  7  8  2  0
  8  9  1  0
  9 10  1  0
 10 11  1  0
 11 12  1  0
 12 13  1  0
 13 14  2  0
 13 15  1  0
 15 16  2  0
 16 17  1  0
 17 18  2  0
 18 19  1  0
 19 20  1  0
 19 21  2  0
  9 22  2  0
 22 23  1  0
  6 24  1  0
 24 25  2  0
 25  3  1  0
 23  7  1  0
 21 15  1  0
  1 26  1  0
  1 27  1  0
  1 28  1  0
  4 29  1  0
  5 30  1  0
 10 31  1  0
 10 32  1  0
 11 33  1  0
 11 34  1  0
 12 35  1  0
 16 36  1  0
 18 37  1  0
 21 38  1  0
 22 39  1  0
 24 40  1  0
 25 41  1  0
M  END
>  <meeko>  (3) 
{"is_sidechain": [false], "free_energy": -7.86, "intermolecular_energy": -10.95, "internal_energy": -0.985}

$$$$
ligand_35_conformer_5_docked
     RDKit          3D

 41 43  0  0  0  0  0  0  0  0999 V2000
   -1.1810   44.2670   53.2330 C   0  0  0  0  0  0  0  0  0  0  0  0
    0.0500   43.8080   53.7790 O   0  0  0  0  0  0  0  0  0  0  0  0
    1.1880   43.5000   53.0190 C   0  0  0  0  0  0  0  0  0  0  0  0
    1.1230   42.7410   51.8350 C   0  0  0  0  0  0  0  0  0  0  0  0
    2.2870   42.4600   51.1130 C   0  0  0  0  0  0  0  0  0  0  0  0
    3.5320   42.9310   51.5580 C   0  0  0  0  0  0  0  0  0  0  0  0
    4.7650   42.6370   50.7990 C   0  0  0  0  0  0  0  0  0  0  0  0
    5.5760   43.5880   50.2860 N   0  0  0  0  0  0  0  0  0  0  0  0
    6.5510   42.8720   49.6960 C   0  0  0  0  0  0  0  0  0  0  0  0
    7.6860   43.4750   48.9240 C   0  0  0  0  0  0  0  0  0  0  0  0
    8.3260   44.6350   49.6950 C   0  0  0  0  0  0  0  0  0  0  0  0
    7.3430   45.3430   50.5170 N   0  0  0  0  0  0  0  0  0  0  0  0
    7.7320   46.0290   51.7160 C   0  0  0  0  0  0  0  0  0  0  0  0
    8.9570   46.2030   51.9650 O   0  0  0  0  0  0  0  0  0  0  0  0
    6.7180   46.5510   52.6630 C   0  0  0  0  0  0  0  0  0  0  0  0
    7.0550   46.7850   54.0070 C   0  0  0  0  0  0  0  0  0  0  0  0
    6.1230   47.2570   54.8790 N   0  0  0  0  0  0  0  0  0  0  0  0
    4.8450   47.5110   54.4920 C   0  0  0  0  0  0  0  0  0  0  0  0
    4.4580   47.2820   53.1710 C   0  0  0  0  0  0  0  0  0  0  0  0
    3.1820   47.5200   52.7830 F   0  0  0  0  0  0  0  0  0  0  0  0
    5.3940   46.7980   52.2560 C   0  0  0  0  0  0  0  0  0  0  0  0
    6.3000   41.5280   49.8560 C   0  0  0  0  0  0  0  0  0  0  0  0
    5.1920   41.4180   50.5460 O   0  0  0  0  0  0  0  0  0  0  0  0
    3.5940   43.6870   52.7390 C   0  0  0  0  0  0  0  0  0  0  0  0
    2.4310   43.9680   53.4610 C   0  0  0  0  0  0  0  0  0  0  0  0
   -1.8712   44.5243   54.0500 H   0  0  0  0  0  0  0  0  0  0  0  0
   -0.9980   45.1573   52.6134 H   0  0  0  0  0  0  0  0  0  0  0  0
   -1.6256   43.4742   52.6134 H   0  0  0  0  0  0  0  0  0  0  0  0
    0.1525   42.3675   51.4764 H   0  0  0  0  0  0  0  0  0  0  0  0
    2.2265   41.8655   50.1895 H   0  0  0  0  0  0  0  0  0  0  0  0
    8.4470   42.7019   48.7421 H   0  0  0  0  0  0  0  0  0  0  0  0
    7.2929   43.8636   47.9729 H   0  0  0  0  0  0  0  0  0  0  0  0
    9.1166   44.2366   50.3478 H   0  0  0  0  0  0  0  0  0  0  0  0
    8.7404   45.3461   48.9652 H   0  0  0  0  0  0  0  0  0  0  0  0
    6.3480   45.3850   50.2050 H   0  0  0  0  0  0  0  0  0  0  0  0
    8.0787   46.5854   54.3564 H   0  0  0  0  0  0  0  0  0  0  0  0
    4.1161   47.8969   55.2199 H   0  0  0  0  0  0  0  0  0  0  0  0
    5.0960   46.6092   51.2141 H   0  0  0  0  0  0  0  0  0  0  0  0
    6.9157   40.6999   49.4750 H   0  0  0  0  0  0  0  0  0  0  0  0
    4.5641   44.0606   53.0985 H   0  0  0  0  0  0  0  0  0  0  0  0
    2.4929   44.5621   54.3847 H   0  0  0  0  0  0  0  0  0  0  0  0
  1  2  1  0
  2  3  1  0
  3  4  2  0
  4  5  1  0
  5  6  2  0
  6  7  1  0
  7  8  2  0
  8  9  1  0
  9 10  1  0
 10 11  1  0
 11 12  1  0
 12 13  1  0
 13 14  2  0
 13 15  1  0
 15 16  2  0
 16 17  1  0
 17 18  2  0
 18 19  1  0
 19 20  1  0
 19 21  2  0
  9 22  2  0
 22 23  1  0
  6 24  1  0
 24 25  2  0
 25  3  1  0
 23  7  1  0
 21 15  1  0
  1 26  1  0
  1 27  1  0
  1 28  1  0
  4 29  1  0
  5 30  1  0
 10 31  1  0
 10 32  1  0
 11 33  1  0
 11 34  1  0
 12 35  1  0
 16 36  1  0
 18 37  1  0
 21 38  1  0
 22 39  1  0
 24 40  1  0
 25 41  1  0
M  END
>  <meeko>  (4) 
{"is_sidechain": [false], "free_energy": -7.733, "intermolecular_energy": -10.879, "internal_energy": -0.884}

$$$$
ligand_35_conformer_5_docked
     RDKit          3D

 41 43  0  0  0  0  0  0  0  0999 V2000
   -0.7700   44.9350   56.1410 C   0  0  0  0  0  0  0  0  0  0  0  0
   -0.2070   45.0030   54.8350 O   0  0  0  0  0  0  0  0  0  0  0  0
    1.1200   45.3660   54.5630 C   0  0  0  0  0  0  0  0  0  0  0  0
    1.5540   45.7350   53.2750 C   0  0  0  0  0  0  0  0  0  0  0  0
    2.8880   46.0880   53.0550 C   0  0  0  0  0  0  0  0  0  0  0  0
    3.8110   46.0800   54.1140 C   0  0  0  0  0  0  0  0  0  0  0  0
    5.2230   46.4510   53.8860 C   0  0  0  0  0  0  0  0  0  0  0  0
    5.7180   46.8200   52.6850 N   0  0  0  0  0  0  0  0  0  0  0  0
    7.0150   47.0630   52.9510 C   0  0  0  0  0  0  0  0  0  0  0  0
    8.0240   47.4590   51.9150 C   0  0  0  0  0  0  0  0  0  0  0  0
    8.2070   46.3540   50.8690 C   0  0  0  0  0  0  0  0  0  0  0  0
    7.2680   45.2510   51.0810 N   0  0  0  0  0  0  0  0  0  0  0  0
    7.1290   44.1960   50.1170 C   0  0  0  0  0  0  0  0  0  0  0  0
    7.9640   44.1000   49.1750 O   0  0  0  0  0  0  0  0  0  0  0  0
    6.0300   43.2070   50.2170 C   0  0  0  0  0  0  0  0  0  0  0  0
    5.9790   42.1100   49.3390 C   0  0  0  0  0  0  0  0  0  0  0  0
    4.9660   41.2060   49.4250 N   0  0  0  0  0  0  0  0  0  0  0  0
    3.9740   41.3280   50.3450 C   0  0  0  0  0  0  0  0  0  0  0  0
    3.9730   42.4060   51.2310 C   0  0  0  0  0  0  0  0  0  0  0  0
    2.9790   42.5410   52.1420 F   0  0  0  0  0  0  0  0  0  0  0  0
    5.0000   43.3490   51.1650 C   0  0  0  0  0  0  0  0  0  0  0  0
    7.2660   46.8270   54.2830 C   0  0  0  0  0  0  0  0  0  0  0  0
    6.1370   46.4550   54.8330 O   0  0  0  0  0  0  0  0  0  0  0  0
    3.3760   45.7110   55.3960 C   0  0  0  0  0  0  0  0  0  0  0  0
    2.0420   45.3580   55.6160 C   0  0  0  0  0  0  0  0  0  0  0  0
    0.0294   45.0316   56.8904 H   0  0  0  0  0  0  0  0  0  0  0  0
   -1.4949   45.7521   56.2708 H   0  0  0  0  0  0  0  0  0  0  0  0
   -1.2795   43.9688   56.2708 H   0  0  0  0  0  0  0  0  0  0  0  0
    0.8397   45.7454   52.4385 H   0  0  0  0  0  0  0  0  0  0  0  0
    3.2178   46.3742   52.0454 H   0  0  0  0  0  0  0  0  0  0  0  0
    7.6815   48.3756   51.4125 H   0  0  0  0  0  0  0  0  0  0  0  0
    8.9889   47.6284   52.4153 H   0  0  0  0  0  0  0  0  0  0  0  0
    8.0392   46.7784   49.8681 H   0  0  0  0  0  0  0  0  0  0  0  0
    9.2292   45.9584   50.9614 H   0  0  0  0  0  0  0  0  0  0  0  0
    6.7180   45.2080   51.9670 H   0  0  0  0  0  0  0  0  0  0  0  0
    6.7629   41.9819   48.5780 H   0  0  0  0  0  0  0  0  0  0  0  0
    3.1716   40.5770   50.3915 H   0  0  0  0  0  0  0  0  0  0  0  0
    5.0041   44.2051   51.8557 H   0  0  0  0  0  0  0  0  0  0  0  0
    8.2356   46.9314   54.7919 H   0  0  0  0  0  0  0  0  0  0  0  0
    4.0896   45.6995   56.2331 H   0  0  0  0  0  0  0  0  0  0  0  0
    1.7135   45.0712   56.6259 H   0  0  0  0  0  0  0  0  0  0  0  0
  1  2  1  0
  2  3  1  0
  3  4  2  0
  4  5  1  0
  5  6  2  0
  6  7  1  0
  7  8  2  0
  8  9  1  0
  9 10  1  0
 10 11  1  0
 11 12  1  0
 12 13  1  0
 13 14  2  0
 13 15  1  0
 15 16  2  0
 16 17  1  0
 17 18  2  0
 18 19  1  0
 19 20  1  0
 19 21  2  0
  9 22  2  0
 22 23  1  0
  6 24  1  0
 24 25  2  0
 25  3  1  0
 23  7  1  0
 21 15  1  0
  1 26  1  0
  1 27  1  0
  1 28  1  0
  4 29  1  0
  5 30  1  0
 10 31  1  0
 10 32  1  0
 11 33  1  0
 11 34  1  0
 12 35  1  0
 16 36  1  0
 18 37  1  0
 21 38  1  0
 22 39  1  0
 24 40  1  0
 25 41  1  0
M  END
>  <meeko>  (5) 
{"is_sidechain": [false], "free_energy": -7.677, "intermolecular_energy": -10.469, "internal_energy": -1.218}

$$$$
