ligand_21_conformer_5_docked
     RDKit          3D

 39 42  0  0  0  0  0  0  0  0999 V2000
    2.9080   42.4280   52.2400 C   0  0  0  0  0  0  0  0  0  0  0  0
    2.7300   43.9270   52.4760 C   0  0  1  0  0  0  0  0  0  0  0  0
    2.4650   44.6000   51.1870 N   0  0  0  0  0  0  0  0  0  0  0  0
    2.7230   46.0470   51.2350 C   0  0  0  0  0  0  0  0  0  0  0  0
    4.0880   46.3250   51.7930 C   0  0  0  0  0  0  0  0  0  0  0  0
    5.1900   45.9630   51.0710 N   0  0  0  0  0  0  0  0  0  0  0  0
    6.4200   46.1880   51.5900 C   0  0  0  0  0  0  0  0  0  0  0  0
    7.9100   45.8180   50.8700 S   0  0  0  0  0  0  0  0  0  0  0  0
    8.7660   46.4260   52.1950 C   0  0  0  0  0  0  0  0  0  0  0  0
    7.9400   46.8930   53.1560 C   0  0  0  0  0  0  0  0  0  0  0  0
    6.5910   46.7690   52.8350 C   0  0  0  0  0  0  0  0  0  0  0  0
    5.4650   47.1300   53.5710 C   0  0  0  0  0  0  0  0  0  0  0  0
    5.5740   47.6570   54.7100 O   0  0  0  0  0  0  0  0  0  0  0  0
    4.2310   46.8980   53.0330 N   0  0  0  0  0  0  0  0  0  0  0  0
    8.6720   47.4190   54.3250 C   0  0  0  0  0  0  0  0  0  0  0  0
   10.1570   47.2020   53.9310 C   0  0  0  0  0  0  0  0  0  0  0  0
   10.1940   46.5440   52.5280 C   0  0  0  0  0  0  0  0  0  0  0  0
    1.6250   44.1710   53.4750 C   0  0  0  0  0  0  0  0  0  0  0  0
    1.7830   44.7580   54.7250 C   0  0  0  0  0  0  0  0  0  0  0  0
    0.5820   44.8750   55.4330 C   0  0  0  0  0  0  0  0  0  0  0  0
    0.4740   45.6440   57.1750 Br  0  0  0  0  0  0  0  0  0  0  0  0
   -0.5250   44.3870   54.7520 C   0  0  0  0  0  0  0  0  0  0  0  0
   -0.0060   43.8080   53.2610 S   0  0  0  0  0  0  0  0  0  0  0  0
    2.9696   41.9092   53.2080 H   0  0  0  0  0  0  0  0  0  0  0  0
    2.0494   42.0419   51.6710 H   0  0  0  0  0  0  0  0  0  0  0  0
    3.8332   42.2537   51.6710 H   0  0  0  0  0  0  0  0  0  0  0  0
    3.6529   44.3498   52.8995 H   0  0  0  0  0  0  0  0  0  0  0  0
    1.4650   44.4530   50.9180 H   0  0  0  0  0  0  0  0  0  0  0  0
    2.6583   46.4591   50.2172 H   0  0  0  0  0  0  0  0  0  0  0  0
    1.9723   46.5183   51.8864 H   0  0  0  0  0  0  0  0  0  0  0  0
    3.3810   47.1600   53.5830 H   0  0  0  0  0  0  0  0  0  0  0  0
    8.4556   48.4863   54.4799 H   0  0  0  0  0  0  0  0  0  0  0  0
    8.3963   46.9248   55.2683 H   0  0  0  0  0  0  0  0  0  0  0  0
   10.6800   48.1693   53.9027 H   0  0  0  0  0  0  0  0  0  0  0  0
   10.6552   46.5547   54.6678 H   0  0  0  0  0  0  0  0  0  0  0  0
   10.7200   47.1826   51.8030 H   0  0  0  0  0  0  0  0  0  0  0  0
   10.7302   45.5838   52.5076 H   0  0  0  0  0  0  0  0  0  0  0  0
    2.7534   45.0961   55.1175 H   0  0  0  0  0  0  0  0  0  0  0  0
   -1.5606   44.3803   55.1229 H   0  0  0  0  0  0  0  0  0  0  0  0
  1  2  1  0
  2  3  1  0
  3  4  1  0
  4  5  1  0
  5  6  2  0
  6  7  1  0
  7  8  1  0
  8  9  1  0
  9 10  2  0
 10 11  1  0
 11 12  1  0
 12 13  2  0
 12 14  1  0
 10 15  1  0
 15 16  1  0
 16 17  1  0
  2 18  1  0
 18 19  2  0
 19 20  1  0
 20 21  1  0
 20 22  2  0
 22 23  1  0
 14  5  1  0
 23 18  1  0
 11  7  2  0
 17  9  1  0
  1 24  1  0
  1 25  1  0
  1 26  1  0
  2 27  1  1
  3 28  1  0
  4 29  1  0
  4 30  1  0
 14 31  1  0
 15 32  1  0
 15 33  1  0
 16 34  1  0
 16 35  1  0
 17 36  1  0
 17 37  1  0
 19 38  1  0
 22 39  1  0
M  END
>  <meeko>  (1) 
{"is_sidechain": [false], "free_energy": -8.764, "intermolecular_energy": -10.814, "internal_energy": -0.496}

$$$$
ligand_21_conformer_5_docked
     RDKit          3D

 39 42  0  0  0  0  0  0  0  0999 V2000
    0.6330   43.3430   51.4520 C   0  0  0  0  0  0  0  0  0  0  0  0
    0.7910   42.6660   52.8140 C   0  0  1  0  0  0  0  0  0  0  0  0
    2.2180   42.3720   53.0540 N   0  0  0  0  0  0  0  0  0  0  0  0
    3.0660   42.6690   51.8900 C   0  0  0  0  0  0  0  0  0  0  0  0
    4.1620   43.6240   52.2610 C   0  0  0  0  0  0  0  0  0  0  0  0
    5.0380   44.0410   51.3000 N   0  0  0  0  0  0  0  0  0  0  0  0
    6.0430   44.8800   51.6440 C   0  0  0  0  0  0  0  0  0  0  0  0
    7.2340   45.5140   50.6160 S   0  0  0  0  0  0  0  0  0  0  0  0
    7.9590   46.3630   51.8860 C   0  0  0  0  0  0  0  0  0  0  0  0
    7.3140   46.1650   53.0560 C   0  0  0  0  0  0  0  0  0  0  0  0
    6.2130   45.3190   52.9460 C   0  0  0  0  0  0  0  0  0  0  0  0
    5.3220   44.8860   53.9250 C   0  0  0  0  0  0  0  0  0  0  0  0
    5.4420   45.2580   55.1230 O   0  0  0  0  0  0  0  0  0  0  0  0
    4.3110   44.0420   53.5610 N   0  0  0  0  0  0  0  0  0  0  0  0
    7.9390   46.8920   54.1780 C   0  0  0  0  0  0  0  0  0  0  0  0
    9.1340   47.6140   53.5000 C   0  0  0  0  0  0  0  0  0  0  0  0
    9.1290   47.2480   51.9930 C   0  0  0  0  0  0  0  0  0  0  0  0
    0.2050   43.5350   53.9000 C   0  0  0  0  0  0  0  0  0  0  0  0
    0.9290   44.1860   54.8910 C   0  0  0  0  0  0  0  0  0  0  0  0
    0.1260   44.9390   55.7560 C   0  0  0  0  0  0  0  0  0  0  0  0
    0.8300   45.9480   57.2120 Br  0  0  0  0  0  0  0  0  0  0  0  0
   -1.2290   44.8890   55.4540 C   0  0  0  0  0  0  0  0  0  0  0  0
   -1.4270   43.9040   54.1050 S   0  0  0  0  0  0  0  0  0  0  0  0
    0.3852   44.4049   51.5969 H   0  0  0  0  0  0  0  0  0  0  0  0
    1.5747   43.2597   50.8897 H   0  0  0  0  0  0  0  0  0  0  0  0
   -0.1746   42.8514   50.8897 H   0  0  0  0  0  0  0  0  0  0  0  0
    0.2395   41.7143   52.8240 H   0  0  0  0  0  0  0  0  0  0  0  0
    2.3280   41.3580   53.2900 H   0  0  0  0  0  0  0  0  0  0  0  0
    3.5119   41.7339   51.5203 H   0  0  0  0  0  0  0  0  0  0  0  0
    2.4444   43.1309   51.1088 H   0  0  0  0  0  0  0  0  0  0  0  0
    3.6440   43.7070   54.2930 H   0  0  0  0  0  0  0  0  0  0  0  0
    7.2384   47.6157   54.6200 H   0  0  0  0  0  0  0  0  0  0  0  0
    8.2417   46.2350   55.0067 H   0  0  0  0  0  0  0  0  0  0  0  0
    9.0278   48.7023   53.6193 H   0  0  0  0  0  0  0  0  0  0  0  0
   10.0806   47.3003   53.9642 H   0  0  0  0  0  0  0  0  0  0  0  0
    9.0087   48.1440   51.3664 H   0  0  0  0  0  0  0  0  0  0  0  0
   10.0649   46.7820   51.6511 H   0  0  0  0  0  0  0  0  0  0  0  0
    2.0227   44.1168   54.9864 H   0  0  0  0  0  0  0  0  0  0  0  0
   -2.0323   45.4037   56.0015 H   0  0  0  0  0  0  0  0  0  0  0  0
  1  2  1  0
  2  3  1  0
  3  4  1  0
  4  5  1  0
  5  6  2  0
  6  7  1  0
  7  8  1  0
  8  9  1  0
  9 10  2  0
 10 11  1  0
 11 12  1  0
 12 13  2  0
 12 14  1  0
 10 15  1  0
 15 16  1  0
 16 17  1  0
  2 18  1  0
 18 19  2  0
 19 20  1  0
 20 21  1  0
 20 22  2  0
 22 23  1  0
 14  5  1  0
 23 18  1  0
 11  7  2  0
 17  9  1  0
  1 24  1  0
  1 25  1  0
  1 26  1  0
  2 27  1  6
  3 28  1  0
  4 29  1  0
  4 30  1  0
 14 31  1  0
 15 32  1  0
 15 33  1  0
 16 34  1  0
 16 35  1  0
 17 36  1  0
 17 37  1  0
 19 38  1  0
 22 39  1  0
M  END
>  <meeko>  (2) 
{"is_sidechain": [false], "free_energy": -8.636, "intermolecular_energy": -10.641, "internal_energy": -0.511}

$$$$
ligand_21_conformer_5_docked
     RDKit          3D

 39 42  0  0  0  0  0  0  0  0999 V2000
    0.5540   43.5990   52.3500 C   0  0  0  0  0  0  0  0  0  0  0  0
    1.3580   44.5740   53.2100 C   0  0  1  0  0  0  0  0  0  0  0  0
    1.4720   45.8690   52.5100 N   0  0  0  0  0  0  0  0  0  0  0  0
    2.4240   45.8320   51.3900 C   0  0  0  0  0  0  0  0  0  0  0  0
    3.8110   46.1540   51.8620 C   0  0  0  0  0  0  0  0  0  0  0  0
    4.8790   45.7820   51.0950 N   0  0  0  0  0  0  0  0  0  0  0  0
    6.1310   46.0480   51.5370 C   0  0  0  0  0  0  0  0  0  0  0  0
    7.5860   45.6740   50.7510 S   0  0  0  0  0  0  0  0  0  0  0  0
    8.5010   46.3470   52.0030 C   0  0  0  0  0  0  0  0  0  0  0  0
    7.7200   46.8380   52.9890 C   0  0  0  0  0  0  0  0  0  0  0  0
    6.3580   46.6790   52.7480 C   0  0  0  0  0  0  0  0  0  0  0  0
    5.2670   47.0510   53.5300 C   0  0  0  0  0  0  0  0  0  0  0  0
    5.4280   47.6240   54.6410 O   0  0  0  0  0  0  0  0  0  0  0  0
    4.0100   46.7780   53.0690 N   0  0  0  0  0  0  0  0  0  0  0  0
    8.5040   47.4210   54.0960 C   0  0  0  0  0  0  0  0  0  0  0  0
    9.9700   47.2130   53.6300 C   0  0  0  0  0  0  0  0  0  0  0  0
    9.9430   46.5010   52.2530 C   0  0  0  0  0  0  0  0  0  0  0  0
    0.7190   44.7220   54.5690 C   0  0  0  0  0  0  0  0  0  0  0  0
   -0.5820   44.3540   54.8930 C   0  0  0  0  0  0  0  0  0  0  0  0
   -0.9020   44.5890   56.2350 C   0  0  0  0  0  0  0  0  0  0  0  0
   -2.6100   44.1850   56.9810 Br  0  0  0  0  0  0  0  0  0  0  0  0
    0.1360   45.1380   56.9750 C   0  0  0  0  0  0  0  0  0  0  0  0
    1.4590   45.3310   55.9540 S   0  0  0  0  0  0  0  0  0  0  0  0
   -0.0101   42.9150   53.0011 H   0  0  0  0  0  0  0  0  0  0  0  0
   -0.1462   44.1616   51.7150 H   0  0  0  0  0  0  0  0  0  0  0  0
    1.2397   43.0188   51.7150 H   0  0  0  0  0  0  0  0  0  0  0  0
    2.3733   44.1814   53.3684 H   0  0  0  0  0  0  0  0  0  0  0  0
    1.7890   46.6020   53.1870 H   0  0  0  0  0  0  0  0  0  0  0  0
    2.4186   44.8262   50.9446 H   0  0  0  0  0  0  0  0  0  0  0  0
    2.1215   46.5815   50.6439 H   0  0  0  0  0  0  0  0  0  0  0  0
    3.1870   47.0470   53.6550 H   0  0  0  0  0  0  0  0  0  0  0  0
    8.2767   48.4899   54.2219 H   0  0  0  0  0  0  0  0  0  0  0  0
    8.2885   46.9595   55.0710 H   0  0  0  0  0  0  0  0  0  0  0  0
   10.4728   48.1868   53.5361 H   0  0  0  0  0  0  0  0  0  0  0  0
   10.5193   46.6035   54.3627 H   0  0  0  0  0  0  0  0  0  0  0  0
   10.4174   47.1190   51.4765 H   0  0  0  0  0  0  0  0  0  0  0  0
   10.4946   45.5494   52.2402 H   0  0  0  0  0  0  0  0  0  0  0  0
   -1.2879   43.9221   54.1683 H   0  0  0  0  0  0  0  0  0  0  0  0
    0.0999   45.4009   58.0425 H   0  0  0  0  0  0  0  0  0  0  0  0
  1  2  1  0
  2  3  1  0
  3  4  1  0
  4  5  1  0
  5  6  2  0
  6  7  1  0
  7  8  1  0
  8  9  1  0
  9 10  2  0
 10 11  1  0
 11 12  1  0
 12 13  2  0
 12 14  1  0
 10 15  1  0
 15 16  1  0
 16 17  1  0
  2 18  1  0
 18 19  2  0
 19 20  1  0
 20 21  1  0
 20 22  2  0
 22 23  1  0
 14  5  1  0
 23 18  1  0
 11  7  2  0
 17  9  1  0
  1 24  1  0
  1 25  1  0
  1 26  1  0
  2 27  1  1
  3 28  1  0
  4 29  1  0
  4 30  1  0
 14 31  1  0
 15 32  1  0
 15 33  1  0
 16 34  1  0
 16 35  1  0
 17 36  1  0
 17 37  1  0
 19 38  1  0
 22 39  1  0
M  END
>  <meeko>  (3) 
{"is_sidechain": [false], "free_energy": -8.481, "intermolecular_energy": -10.592, "internal_energy": -0.368}

$$$$
ligand_21_conformer_5_docked
     RDKit          3D

 39 42  0  0  0  0  0  0  0  0999 V2000
    0.1890   43.4960   51.9830 C   0  0  0  0  0  0  0  0  0  0  0  0
    0.8790   43.0580   53.2750 C   0  0  1  0  0  0  0  0  0  0  0  0
    2.3430   43.0730   53.0790 N   0  0  0  0  0  0  0  0  0  0  0  0
    2.7470   43.7570   51.8410 C   0  0  0  0  0  0  0  0  0  0  0  0
    4.1180   44.3490   51.9850 C   0  0  0  0  0  0  0  0  0  0  0  0
    4.4430   45.0070   53.1370 N   0  0  0  0  0  0  0  0  0  0  0  0
    5.6710   45.5660   53.2510 C   0  0  0  0  0  0  0  0  0  0  0  0
    6.2760   46.4240   54.5840 S   0  0  0  0  0  0  0  0  0  0  0  0
    7.7560   46.6920   53.8110 C   0  0  0  0  0  0  0  0  0  0  0  0
    7.7840   46.1460   52.5770 C   0  0  0  0  0  0  0  0  0  0  0  0
    6.6030   45.4950   52.2300 C   0  0  0  0  0  0  0  0  0  0  0  0
    6.2650   44.8290   51.0550 C   0  0  0  0  0  0  0  0  0  0  0  0
    7.0810   44.7450   50.0980 O   0  0  0  0  0  0  0  0  0  0  0  0
    5.0230   44.2690   50.9550 N   0  0  0  0  0  0  0  0  0  0  0  0
    9.0670   46.3780   51.8840 C   0  0  0  0  0  0  0  0  0  0  0  0
    9.8810   47.1920   52.9260 C   0  0  0  0  0  0  0  0  0  0  0  0
    8.9960   47.3890   54.1830 C   0  0  0  0  0  0  0  0  0  0  0  0
    0.4560   43.9460   54.4200 C   0  0  0  0  0  0  0  0  0  0  0  0
   -0.8420   44.0830   54.8960 C   0  0  0  0  0  0  0  0  0  0  0  0
   -0.9400   44.9620   55.9820 C   0  0  0  0  0  0  0  0  0  0  0  0
   -2.5890   45.3530   56.8560 Br  0  0  0  0  0  0  0  0  0  0  0  0
    0.2720   45.5190   56.3670 C   0  0  0  0  0  0  0  0  0  0  0  0
    1.4700   44.9140   55.3540 S   0  0  0  0  0  0  0  0  0  0  0  0
   -0.7165   44.0708   52.2276 H   0  0  0  0  0  0  0  0  0  0  0  0
    0.8748   44.1245   51.3959 H   0  0  0  0  0  0  0  0  0  0  0  0
   -0.0878   42.6079   51.3959 H   0  0  0  0  0  0  0  0  0  0  0  0
    0.5778   42.0311   53.5294 H   0  0  0  0  0  0  0  0  0  0  0  0
    2.6980   42.0890   53.0420 H   0  0  0  0  0  0  0  0  0  0  0  0
    2.7517   43.0325   51.0133 H   0  0  0  0  0  0  0  0  0  0  0  0
    2.0319   44.5672   51.6352 H   0  0  0  0  0  0  0  0  0  0  0  0
    4.7610   43.7740   50.0720 H   0  0  0  0  0  0  0  0  0  0  0  0
    9.5664   45.4270   51.6468 H   0  0  0  0  0  0  0  0  0  0  0  0
    8.9531   46.8962   50.9204 H   0  0  0  0  0  0  0  0  0  0  0  0
   10.7950   46.6429   53.1962 H   0  0  0  0  0  0  0  0  0  0  0  0
   10.1686   48.1673   52.5064 H   0  0  0  0  0  0  0  0  0  0  0  0
    9.4582   46.9318   55.0703 H   0  0  0  0  0  0  0  0  0  0  0  0
    8.8424   48.4449   54.4503 H   0  0  0  0  0  0  0  0  0  0  0  0
   -1.7048   43.5549   54.4640 H   0  0  0  0  0  0  0  0  0  0  0  0
    0.4224   46.2319   57.1911 H   0  0  0  0  0  0  0  0  0  0  0  0
  1  2  1  0
  2  3  1  0
  3  4  1  0
  4  5  1  0
  5  6  2  0
  6  7  1  0
  7  8  1  0
  8  9  1  0
  9 10  2  0
 10 11  1  0
 11 12  1  0
 12 13  2  0
 12 14  1  0
 10 15  1  0
 15 16  1  0
 16 17  1  0
  2 18  1  0
 18 19  2  0
 19 20  1  0
 20 21  1  0
 20 22  2  0
 22 23  1  0
 14  5  1  0
 23 18  1  0
 11  7  2  0
 17  9  1  0
  1 24  1  0
  1 25  1  0
  1 26  1  0
  2 27  1  1
  3 28  1  0
  4 29  1  0
  4 30  1  0
 14 31  1  0
 15 32  1  0
 15 33  1  0
 16 34  1  0
 16 35  1  0
 17 36  1  0
 17 37  1  0
 19 38  1  0
 22 39  1  0
M  END
>  <meeko>  (4) 
{"is_sidechain": [false], "free_energy": -8.082, "intermolecular_energy": -10.023, "internal_energy": -0.446}

$$$$
ligand_21_conformer_5_docked
     RDKit          3D

 39 42  0  0  0  0  0  0  0  0999 V2000
    0.7230   44.3400   54.8970 C   0  0  0  0  0  0  0  0  0  0  0  0
    1.0740   45.1350   53.6390 C   0  0  1  0  0  0  0  0  0  0  0  0
    2.1370   46.1110   53.9550 N   0  0  0  0  0  0  0  0  0  0  0  0
    2.6880   46.7630   52.7570 C   0  0  0  0  0  0  0  0  0  0  0  0
    4.1880   46.7570   52.7930 C   0  0  0  0  0  0  0  0  0  0  0  0
    4.8790   46.2730   51.7190 N   0  0  0  0  0  0  0  0  0  0  0  0
    6.2310   46.2420   51.7660 C   0  0  0  0  0  0  0  0  0  0  0  0
    7.2770   45.6830   50.5530 S   0  0  0  0  0  0  0  0  0  0  0  0
    8.6410   46.0260   51.4920 C   0  0  0  0  0  0  0  0  0  0  0  0
    8.3070   46.5480   52.6920 C   0  0  0  0  0  0  0  0  0  0  0  0
    6.9330   46.6820   52.8750 C   0  0  0  0  0  0  0  0  0  0  0  0
    6.2240   47.1690   53.9710 C   0  0  0  0  0  0  0  0  0  0  0  0
    6.8220   47.5750   55.0030 O   0  0  0  0  0  0  0  0  0  0  0  0
    4.8600   47.1960   53.9080 N   0  0  0  0  0  0  0  0  0  0  0  0
    9.4860   46.8450   53.5300 C   0  0  0  0  0  0  0  0  0  0  0  0
   10.6710   46.4100   52.6260 C   0  0  0  0  0  0  0  0  0  0  0  0
   10.0900   45.8720   51.2930 C   0  0  0  0  0  0  0  0  0  0  0  0
    1.4830   44.1990   52.5270 C   0  0  0  0  0  0  0  0  0  0  0  0
    2.6740   43.4860   52.4700 C   0  0  0  0  0  0  0  0  0  0  0  0
    2.7780   42.6800   51.3290 C   0  0  0  0  0  0  0  0  0  0  0  0
    4.2940   41.5800   50.9710 Br  0  0  0  0  0  0  0  0  0  0  0  0
    1.6780   42.7500   50.4860 C   0  0  0  0  0  0  0  0  0  0  0  0
    0.5690   43.8190   51.1630 S   0  0  0  0  0  0  0  0  0  0  0  0
    0.9835   44.9299   55.7881 H   0  0  0  0  0  0  0  0  0  0  0  0
   -0.3551   44.1218   54.9040 H   0  0  0  0  0  0  0  0  0  0  0  0
    1.2881   43.3963   54.9040 H   0  0  0  0  0  0  0  0  0  0  0  0
    0.1911   45.6910   53.2906 H   0  0  0  0  0  0  0  0  0  0  0  0
    2.9180   45.6250   54.4530 H   0  0  0  0  0  0  0  0  0  0  0  0
    2.3460   46.2225   51.8621 H   0  0  0  0  0  0  0  0  0  0  0  0
    2.3389   47.8058   52.7294 H   0  0  0  0  0  0  0  0  0  0  0  0
    4.3220   47.5530   54.7300 H   0  0  0  0  0  0  0  0  0  0  0  0
    9.5425   47.9174   53.7681 H   0  0  0  0  0  0  0  0  0  0  0  0
    9.4691   46.3308   54.5022 H   0  0  0  0  0  0  0  0  0  0  0  0
   11.3237   47.2727   52.4266 H   0  0  0  0  0  0  0  0  0  0  0  0
   11.2636   45.6293   53.1252 H   0  0  0  0  0  0  0  0  0  0  0  0
   10.4394   46.4688   50.4375 H   0  0  0  0  0  0  0  0  0  0  0  0
   10.3942   44.8393   51.0672 H   0  0  0  0  0  0  0  0  0  0  0  0
    3.4553   43.5480   53.2418 H   0  0  0  0  0  0  0  0  0  0  0  0
    1.5529   42.2023   49.5403 H   0  0  0  0  0  0  0  0  0  0  0  0
  1  2  1  0
  2  3  1  0
  3  4  1  0
  4  5  1  0
  5  6  2  0
  6  7  1  0
  7  8  1  0
  8  9  1  0
  9 10  2  0
 10 11  1  0
 11 12  1  0
 12 13  2  0
 12 14  1  0
 10 15  1  0
 15 16  1  0
 16 17  1  0
  2 18  1  0
 18 19  2  0
 19 20  1  0
 20 21  1  0
 20 22  2  0
 22 23  1  0
 14  5  1  0
 23 18  1  0
 11  7  2  0
 17  9  1  0
  1 24  1  0
  1 25  1  0
  1 26  1  0
  2 27  1  6
  3 28  1  0
  4 29  1  0
  4 30  1  0
 14 31  1  0
 15 32  1  0
 15 33  1  0
 16 34  1  0
 16 35  1  0
 17 36  1  0
 17 37  1  0
 19 38  1  0
 22 39  1  0
M  END
>  <meeko>  (5) 
{"is_sidechain": [false], "free_energy": -8.064, "intermolecular_energy": -10.113, "internal_energy": -0.334}

$$$$
