ligand_48_conformer_4_docked
     RDKit          3D

 52 55  0  0  0  0  0  0  0  0999 V2000
   -3.0990   44.3780   57.3830 C   0  0  0  0  0  0  0  0  0  0  0  0
   -1.7660   44.3580   56.6250 C   0  0  0  0  0  0  0  0  0  0  0  0
   -1.1400   45.7540   56.5910 C   0  0  0  0  0  0  0  0  0  0  0  0
   -1.9410   43.8370   55.2200 C   0  0  0  0  0  0  0  0  0  0  0  0
   -3.1410   43.6360   54.6240 N   0  0  0  0  0  0  0  0  0  0  0  0
   -2.9090   43.2520   53.3720 N   0  0  0  0  0  0  0  0  0  0  0  0
   -1.5710   43.2410   53.2270 C   0  0  0  0  0  0  0  0  0  0  0  0
   -0.8610   42.9130   52.0770 C   0  0  0  0  0  0  0  0  0  0  0  0
    0.5410   42.9880   52.1370 C   0  0  0  0  0  0  0  0  0  0  0  0
    1.1910   43.4020   53.3280 C   0  0  0  0  0  0  0  0  0  0  0  0
    2.6220   43.4740   53.4210 N   0  0  0  0  0  0  0  0  0  0  0  0
    3.3910   44.6400   53.0770 C   0  0  0  0  0  0  0  0  0  0  0  0
    2.8060   45.7460   52.9090 O   0  0  0  0  0  0  0  0  0  0  0  0
    4.8320   44.5780   52.9950 N   0  0  0  0  0  0  0  0  0  0  0  0
    5.6300   44.6060   54.2280 C   0  0  0  0  0  0  0  0  0  0  0  0
    5.4950   45.9590   54.9440 C   0  0  0  0  0  0  0  0  0  0  0  0
    5.9740   47.1670   54.0830 C   0  0  0  0  0  0  0  0  0  0  0  0
    7.2390   46.8980   53.2880 C   0  0  0  0  0  0  0  0  0  0  0  0
    8.4770   47.1410   53.9120 C   0  0  0  0  0  0  0  0  0  0  0  0
    9.6760   46.9300   53.2300 C   0  0  0  0  0  0  0  0  0  0  0  0
    9.6600   46.4720   51.9150 C   0  0  0  0  0  0  0  0  0  0  0  0
    8.4460   46.2080   51.2810 C   0  0  0  0  0  0  0  0  0  0  0  0
    7.2250   46.4040   51.9540 C   0  0  0  0  0  0  0  0  0  0  0  0
    5.9520   45.9690   51.2610 C   0  0  0  0  0  0  0  0  0  0  0  0
    5.5240   44.5590   51.6960 C   0  0  0  0  0  0  0  0  0  0  0  0
    0.4080   43.7020   54.4590 C   0  0  0  0  0  0  0  0  0  0  0  0
   -0.9420   43.6050   54.3510 N   0  0  0  0  0  0  0  0  0  0  0  0
   -2.9052   44.3751   58.4658 H   0  0  0  0  0  0  0  0  0  0  0  0
   -3.6605   45.2847   57.1135 H   0  0  0  0  0  0  0  0  0  0  0  0
   -3.6875   43.4886   57.1135 H   0  0  0  0  0  0  0  0  0  0  0  0
   -1.0901   43.6776   57.1638 H   0  0  0  0  0  0  0  0  0  0  0  0
   -0.9806   46.1095   57.6197 H   0  0  0  0  0  0  0  0  0  0  0  0
   -0.1752   45.7105   56.0644 H   0  0  0  0  0  0  0  0  0  0  0  0
   -1.8142   46.4455   56.0644 H   0  0  0  0  0  0  0  0  0  0  0  0
   -1.3773   42.6065   51.1553 H   0  0  0  0  0  0  0  0  0  0  0  0
    1.1395   42.7234   51.2528 H   0  0  0  0  0  0  0  0  0  0  0  0
    3.1070   42.6910   53.9080 H   0  0  0  0  0  0  0  0  0  0  0  0
    5.2814   43.8077   54.8997 H   0  0  0  0  0  0  0  0  0  0  0  0
    6.6870   44.4547   53.9635 H   0  0  0  0  0  0  0  0  0  0  0  0
    4.4367   46.1127   55.2018 H   0  0  0  0  0  0  0  0  0  0  0  0
    6.1392   45.9201   55.8348 H   0  0  0  0  0  0  0  0  0  0  0  0
    5.1715   47.4282   53.3775 H   0  0  0  0  0  0  0  0  0  0  0  0
    6.2065   47.9832   54.7828 H   0  0  0  0  0  0  0  0  0  0  0  0
    8.4997   47.5019   54.9508 H   0  0  0  0  0  0  0  0  0  0  0  0
   10.6351   47.1257   53.7318 H   0  0  0  0  0  0  0  0  0  0  0  0
   10.6062   46.3182   51.3755 H   0  0  0  0  0  0  0  0  0  0  0  0
    8.4425   45.8425   50.2435 H   0  0  0  0  0  0  0  0  0  0  0  0
    5.1494   46.6785   51.5107 H   0  0  0  0  0  0  0  0  0  0  0  0
    6.1390   45.9525   50.1771 H   0  0  0  0  0  0  0  0  0  0  0  0
    4.8461   44.1418   50.9368 H   0  0  0  0  0  0  0  0  0  0  0  0
    6.4286   43.9415   51.7977 H   0  0  0  0  0  0  0  0  0  0  0  0
    0.8778   44.0071   55.4057 H   0  0  0  0  0  0  0  0  0  0  0  0
  1  2  1  0
  2  3  1  0
  2  4  1  0
  4  5  2  0
  5  6  1  0
  6  7  2  0
  7  8  1  0
  8  9  2  0
  9 10  1  0
 10 11  1  0
 11 12  1  0
 12 13  2  0
 12 14  1  0
 14 15  1  0
 15 16  1  0
 16 17  1  0
 17 18  1  0
 18 19  2  0
 19 20  1  0
 20 21  2  0
 21 22  1  0
 22 23  2  0
 23 24  1  0
 24 25  1  0
 10 26  2  0
 26 27  1  0
 27  4  1  0
 27  7  1  0
 25 14  1  0
 23 18  1  0
  1 28  1  0
  1 29  1  0
  1 30  1  0
  2 31  1  0
  3 32  1  0
  3 33  1  0
  3 34  1  0
  8 35  1  0
  9 36  1  0
 11 37  1  0
 15 38  1  0
 15 39  1  0
 16 40  1  0
 16 41  1  0
 17 42  1  0
 17 43  1  0
 19 44  1  0
 20 45  1  0
 21 46  1  0
 22 47  1  0
 24 48  1  0
 24 49  1  0
 25 50  1  0
 25 51  1  0
 26 52  1  0
M  END
>  <meeko>  (1) 
{"is_sidechain": [false], "free_energy": -7.34, "intermolecular_energy": -11.202, "internal_energy": 0.259}

$$$$
ligand_48_conformer_4_docked
     RDKit          3D

 52 55  0  0  0  0  0  0  0  0999 V2000
    8.0180   48.4510   52.1550 C   0  0  0  0  0  0  0  0  0  0  0  0
    8.1170   47.0060   52.6560 C   0  0  0  0  0  0  0  0  0  0  0  0
    9.5470   46.6760   53.0870 C   0  0  0  0  0  0  0  0  0  0  0  0
    7.6570   46.0280   51.6030 C   0  0  0  0  0  0  0  0  0  0  0  0
    8.3290   45.7680   50.4570 N   0  0  0  0  0  0  0  0  0  0  0  0
    7.6730   44.8040   49.8150 N   0  0  0  0  0  0  0  0  0  0  0  0
    6.6230   44.4860   50.5930 C   0  0  0  0  0  0  0  0  0  0  0  0
    5.6580   43.5180   50.3360 C   0  0  0  0  0  0  0  0  0  0  0  0
    4.6520   43.3330   51.2980 C   0  0  0  0  0  0  0  0  0  0  0  0
    4.6440   44.1000   52.4900 C   0  0  0  0  0  0  0  0  0  0  0  0
    3.6180   43.9420   53.4840 N   0  0  0  0  0  0  0  0  0  0  0  0
    2.3910   44.6920   53.4950 C   0  0  0  0  0  0  0  0  0  0  0  0
    2.0560   45.3580   52.4760 O   0  0  0  0  0  0  0  0  0  0  0  0
    1.5000   44.6350   54.6310 N   0  0  0  0  0  0  0  0  0  0  0  0
    0.2780   43.8240   54.5530 C   0  0  0  0  0  0  0  0  0  0  0  0
   -0.9680   44.7130   54.4090 C   0  0  0  0  0  0  0  0  0  0  0  0
   -1.8770   44.6930   55.6530 C   0  0  0  0  0  0  0  0  0  0  0  0
   -1.5670   45.7850   56.6610 C   0  0  0  0  0  0  0  0  0  0  0  0
   -2.6100   46.6510   57.0400 C   0  0  0  0  0  0  0  0  0  0  0  0
   -2.3850   47.6860   57.9490 C   0  0  0  0  0  0  0  0  0  0  0  0
   -1.1180   47.8740   58.4950 C   0  0  0  0  0  0  0  0  0  0  0  0
   -0.0730   47.0180   58.1470 C   0  0  0  0  0  0  0  0  0  0  0  0
   -0.2790   45.9620   57.2400 C   0  0  0  0  0  0  0  0  0  0  0  0
    0.8570   44.9880   57.0100 C   0  0  0  0  0  0  0  0  0  0  0  0
    1.7540   45.4300   55.8430 C   0  0  0  0  0  0  0  0  0  0  0  0
    5.6420   45.0760   52.6760 C   0  0  0  0  0  0  0  0  0  0  0  0
    6.5860   45.2210   51.7120 N   0  0  0  0  0  0  0  0  0  0  0  0
    7.9711   49.1349   53.0153 H   0  0  0  0  0  0  0  0  0  0  0  0
    8.9019   48.6890   51.5451 H   0  0  0  0  0  0  0  0  0  0  0  0
    7.1099   48.5662   51.5451 H   0  0  0  0  0  0  0  0  0  0  0  0
    7.4532   46.9133   53.5282 H   0  0  0  0  0  0  0  0  0  0  0  0
    9.6050   46.6626   54.1854 H   0  0  0  0  0  0  0  0  0  0  0  0
    9.8302   45.6889   52.6928 H   0  0  0  0  0  0  0  0  0  0  0  0
   10.2341   47.4392   52.6928 H   0  0  0  0  0  0  0  0  0  0  0  0
    5.6820   42.9195   49.4134 H   0  0  0  0  0  0  0  0  0  0  0  0
    3.8631   42.5862   51.1250 H   0  0  0  0  0  0  0  0  0  0  0  0
    3.7070   43.1340   54.1350 H   0  0  0  0  0  0  0  0  0  0  0  0
    0.3453   43.1558   53.6818 H   0  0  0  0  0  0  0  0  0  0  0  0
    0.1858   43.2409   55.4812 H   0  0  0  0  0  0  0  0  0  0  0  0
   -0.6401   45.7481   54.2326 H   0  0  0  0  0  0  0  0  0  0  0  0
   -1.5565   44.3162   53.5686 H   0  0  0  0  0  0  0  0  0  0  0  0
   -2.9191   44.8133   55.3221 H   0  0  0  0  0  0  0  0  0  0  0  0
   -1.7021   43.7326   56.1599 H   0  0  0  0  0  0  0  0  0  0  0  0
   -3.6146   46.5103   56.6146 H   0  0  0  0  0  0  0  0  0  0  0  0
   -3.2104   48.3546   58.2347 H   0  0  0  0  0  0  0  0  0  0  0  0
   -0.9409   48.6984   59.2015 H   0  0  0  0  0  0  0  0  0  0  0  0
    0.9237   47.1702   58.5867 H   0  0  0  0  0  0  0  0  0  0  0  0
    1.4653   44.9268   57.9244 H   0  0  0  0  0  0  0  0  0  0  0  0
    0.4245   44.0081   56.7594 H   0  0  0  0  0  0  0  0  0  0  0  0
    1.5562   46.4894   55.6226 H   0  0  0  0  0  0  0  0  0  0  0  0
    2.8024   45.2785   56.1394 H   0  0  0  0  0  0  0  0  0  0  0  0
    5.6560   45.7042   53.5789 H   0  0  0  0  0  0  0  0  0  0  0  0
  1  2  1  0
  2  3  1  0
  2  4  1  0
  4  5  2  0
  5  6  1  0
  6  7  2  0
  7  8  1  0
  8  9  2  0
  9 10  1  0
 10 11  1  0
 11 12  1  0
 12 13  2  0
 12 14  1  0
 14 15  1  0
 15 16  1  0
 16 17  1  0
 17 18  1  0
 18 19  2  0
 19 20  1  0
 20 21  2  0
 21 22  1  0
 22 23  2  0
 23 24  1  0
 24 25  1  0
 10 26  2  0
 26 27  1  0
 27  4  1  0
 27  7  1  0
 25 14  1  0
 23 18  1  0
  1 28  1  0
  1 29  1  0
  1 30  1  0
  2 31  1  0
  3 32  1  0
  3 33  1  0
  3 34  1  0
  8 35  1  0
  9 36  1  0
 11 37  1  0
 15 38  1  0
 15 39  1  0
 16 40  1  0
 16 41  1  0
 17 42  1  0
 17 43  1  0
 19 44  1  0
 20 45  1  0
 21 46  1  0
 22 47  1  0
 24 48  1  0
 24 49  1  0
 25 50  1  0
 25 51  1  0
 26 52  1  0
M  END
>  <meeko>  (2) 
{"is_sidechain": [false], "free_energy": -7.143, "intermolecular_energy": -10.663, "internal_energy": 0.021}

$$$$
ligand_48_conformer_4_docked
     RDKit          3D

 52 55  0  0  0  0  0  0  0  0999 V2000
    8.3490   48.2300   51.8110 C   0  0  0  0  0  0  0  0  0  0  0  0
    8.6910   46.8410   52.3630 C   0  0  0  0  0  0  0  0  0  0  0  0
   10.0680   46.8460   53.0310 C   0  0  0  0  0  0  0  0  0  0  0  0
    8.6480   45.7940   51.2780 C   0  0  0  0  0  0  0  0  0  0  0  0
    9.7260   45.3830   50.5690 N   0  0  0  0  0  0  0  0  0  0  0  0
    9.3290   44.4020   49.7630 N   0  0  0  0  0  0  0  0  0  0  0  0
    8.0180   44.2250   50.0090 C   0  0  0  0  0  0  0  0  0  0  0  0
    7.1760   43.2960   49.4090 C   0  0  0  0  0  0  0  0  0  0  0  0
    5.8360   43.2660   49.8320 C   0  0  0  0  0  0  0  0  0  0  0  0
    5.3800   44.1460   50.8460 C   0  0  0  0  0  0  0  0  0  0  0  0
    4.0130   44.1480   51.2860 N   0  0  0  0  0  0  0  0  0  0  0  0
    3.1360   45.2820   51.1760 C   0  0  0  0  0  0  0  0  0  0  0  0
    3.4700   46.2610   50.4520 O   0  0  0  0  0  0  0  0  0  0  0  0
    1.8450   45.2850   51.8230 N   0  0  0  0  0  0  0  0  0  0  0  0
    1.6360   46.1140   53.0190 C   0  0  0  0  0  0  0  0  0  0  0  0
    2.4600   45.5890   54.2050 C   0  0  0  0  0  0  0  0  0  0  0  0
    1.8410   44.3290   54.8480 C   0  0  0  0  0  0  0  0  0  0  0  0
    0.3350   44.2430   54.6790 C   0  0  0  0  0  0  0  0  0  0  0  0
   -0.4770   44.7560   55.7090 C   0  0  0  0  0  0  0  0  0  0  0  0
   -1.8680   44.6920   55.6230 C   0  0  0  0  0  0  0  0  0  0  0  0
   -2.4730   44.1170   54.5080 C   0  0  0  0  0  0  0  0  0  0  0  0
   -1.6900   43.6170   53.4670 C   0  0  0  0  0  0  0  0  0  0  0  0
   -0.2860   43.6800   53.5290 C   0  0  0  0  0  0  0  0  0  0  0  0
    0.5010   43.2480   52.3110 C   0  0  0  0  0  0  0  0  0  0  0  0
    0.7500   44.4220   51.3510 C   0  0  0  0  0  0  0  0  0  0  0  0
    6.2850   45.0740   51.3970 C   0  0  0  0  0  0  0  0  0  0  0  0
    7.5660   45.0670   50.9470 N   0  0  0  0  0  0  0  0  0  0  0  0
    8.1780   48.9247   52.6466 H   0  0  0  0  0  0  0  0  0  0  0  0
    9.1839   48.5956   51.1952 H   0  0  0  0  0  0  0  0  0  0  0  0
    7.4397   48.1662   51.1952 H   0  0  0  0  0  0  0  0  0  0  0  0
    7.9308   46.5888   53.1170 H   0  0  0  0  0  0  0  0  0  0  0  0
    9.9452   46.8456   54.1241 H   0  0  0  0  0  0  0  0  0  0  0  0
   10.6275   45.9499   52.7245 H   0  0  0  0  0  0  0  0  0  0  0  0
   10.6210   47.7462   52.7245 H   0  0  0  0  0  0  0  0  0  0  0  0
    7.5446   42.6099   48.6322 H   0  0  0  0  0  0  0  0  0  0  0  0
    5.1350   42.5537   49.3725 H   0  0  0  0  0  0  0  0  0  0  0  0
    3.5990   43.2300   51.5550 H   0  0  0  0  0  0  0  0  0  0  0  0
    1.9418   47.1473   52.7981 H   0  0  0  0  0  0  0  0  0  0  0  0
    0.5704   46.0763   53.2892 H   0  0  0  0  0  0  0  0  0  0  0  0
    3.4712   45.3422   53.8494 H   0  0  0  0  0  0  0  0  0  0  0  0
    2.4801   46.3779   54.9713 H   0  0  0  0  0  0  0  0  0  0  0  0
    2.2951   43.4415   54.3831 H   0  0  0  0  0  0  0  0  0  0  0  0
    2.0437   44.3829   55.9278 H   0  0  0  0  0  0  0  0  0  0  0  0
   -0.0083   45.2132   56.5929 H   0  0  0  0  0  0  0  0  0  0  0  0
   -2.4878   45.0962   56.4369 H   0  0  0  0  0  0  0  0  0  0  0  0
   -3.5697   44.0570   54.4480 H   0  0  0  0  0  0  0  0  0  0  0  0
   -2.1760   43.1685   52.5880 H   0  0  0  0  0  0  0  0  0  0  0  0
    1.4700   42.8427   52.6377 H   0  0  0  0  0  0  0  0  0  0  0  0
   -0.0845   42.4855   51.7765 H   0  0  0  0  0  0  0  0  0  0  0  0
    1.0117   44.0233   50.3598 H   0  0  0  0  0  0  0  0  0  0  0  0
   -0.1676   45.0266   51.3015 H   0  0  0  0  0  0  0  0  0  0  0  0
    5.9625   45.7856   52.1714 H   0  0  0  0  0  0  0  0  0  0  0  0
  1  2  1  0
  2  3  1  0
  2  4  1  0
  4  5  2  0
  5  6  1  0
  6  7  2  0
  7  8  1  0
  8  9  2  0
  9 10  1  0
 10 11  1  0
 11 12  1  0
 12 13  2  0
 12 14  1  0
 14 15  1  0
 15 16  1  0
 16 17  1  0
 17 18  1  0
 18 19  2  0
 19 20  1  0
 20 21  2  0
 21 22  1  0
 22 23  2  0
 23 24  1  0
 24 25  1  0
 10 26  2  0
 26 27  1  0
 27  4  1  0
 27  7  1  0
 25 14  1  0
 23 18  1  0
  1 28  1  0
  1 29  1  0
  1 30  1  0
  2 31  1  0
  3 32  1  0
  3 33  1  0
  3 34  1  0
  8 35  1  0
  9 36  1  0
 11 37  1  0
 15 38  1  0
 15 39  1  0
 16 40  1  0
 16 41  1  0
 17 42  1  0
 17 43  1  0
 19 44  1  0
 20 45  1  0
 21 46  1  0
 22 47  1  0
 24 48  1  0
 24 49  1  0
 25 50  1  0
 25 51  1  0
 26 52  1  0
M  END
>  <meeko>  (3) 
{"is_sidechain": [false], "free_energy": -7.042, "intermolecular_energy": -10.668, "internal_energy": 0.18}

$$$$
ligand_48_conformer_4_docked
     RDKit          3D

 52 55  0  0  0  0  0  0  0  0999 V2000
   -0.3490   48.0580   60.5040 C   0  0  0  0  0  0  0  0  0  0  0  0
   -1.0200   48.4550   59.1840 C   0  0  0  0  0  0  0  0  0  0  0  0
   -2.1060   49.5060   59.4210 C   0  0  0  0  0  0  0  0  0  0  0  0
   -1.6070   47.2540   58.4840 C   0  0  0  0  0  0  0  0  0  0  0  0
   -2.9110   46.8920   58.5520 N   0  0  0  0  0  0  0  0  0  0  0  0
   -3.0790   45.8420   57.7530 N   0  0  0  0  0  0  0  0  0  0  0  0
   -1.8770   45.5950   57.2030 C   0  0  0  0  0  0  0  0  0  0  0  0
   -1.5680   44.5930   56.2890 C   0  0  0  0  0  0  0  0  0  0  0  0
   -0.2450   44.5250   55.8230 C   0  0  0  0  0  0  0  0  0  0  0  0
    0.7240   45.4620   56.2630 C   0  0  0  0  0  0  0  0  0  0  0  0
    2.0870   45.4060   55.8140 N   0  0  0  0  0  0  0  0  0  0  0  0
    2.5060   45.7460   54.4810 C   0  0  0  0  0  0  0  0  0  0  0  0
    1.7090   46.3510   53.7110 O   0  0  0  0  0  0  0  0  0  0  0  0
    3.8530   45.4710   54.0350 N   0  0  0  0  0  0  0  0  0  0  0  0
    4.0730   44.5090   52.9470 C   0  0  0  0  0  0  0  0  0  0  0  0
    4.6590   45.2020   51.7070 C   0  0  0  0  0  0  0  0  0  0  0  0
    6.1500   44.8600   51.4270 C   0  0  0  0  0  0  0  0  0  0  0  0
    7.1220   45.8180   52.0890 C   0  0  0  0  0  0  0  0  0  0  0  0
    7.9380   46.6100   51.2600 C   0  0  0  0  0  0  0  0  0  0  0  0
    8.8650   47.4990   51.8060 C   0  0  0  0  0  0  0  0  0  0  0  0
    8.9930   47.6130   53.1890 C   0  0  0  0  0  0  0  0  0  0  0  0
    8.1840   46.8500   54.0310 C   0  0  0  0  0  0  0  0  0  0  0  0
    7.2360   45.9550   53.5010 C   0  0  0  0  0  0  0  0  0  0  0  0
    6.2960   45.2610   54.4630 C   0  0  0  0  0  0  0  0  0  0  0  0
    5.0170   46.0810   54.6960 C   0  0  0  0  0  0  0  0  0  0  0  0
    0.3450   46.4390   57.2040 C   0  0  0  0  0  0  0  0  0  0  0  0
   -0.9440   46.4560   57.6290 N   0  0  0  0  0  0  0  0  0  0  0  0
   -0.9570   48.4178   61.3471 H   0  0  0  0  0  0  0  0  0  0  0  0
   -0.2616   46.9627   60.5560 H   0  0  0  0  0  0  0  0  0  0  0  0
    0.6531   48.5087   60.5560 H   0  0  0  0  0  0  0  0  0  0  0  0
   -0.2434   48.8870   58.5357 H   0  0  0  0  0  0  0  0  0  0  0  0
   -2.2508   49.6462   60.5024 H   0  0  0  0  0  0  0  0  0  0  0  0
   -1.7994   50.4592   58.9655 H   0  0  0  0  0  0  0  0  0  0  0  0
   -3.0486   49.1684   58.9655 H   0  0  0  0  0  0  0  0  0  0  0  0
   -2.3316   43.8803   55.9440 H   0  0  0  0  0  0  0  0  0  0  0  0
    0.0421   43.7378   55.1103 H   0  0  0  0  0  0  0  0  0  0  0  0
    2.8210   45.2610   56.5380 H   0  0  0  0  0  0  0  0  0  0  0  0
    4.7732   43.7329   53.2896 H   0  0  0  0  0  0  0  0  0  0  0  0
    3.1054   44.0628   52.6737 H   0  0  0  0  0  0  0  0  0  0  0  0
    4.0660   44.9000   50.8311 H   0  0  0  0  0  0  0  0  0  0  0  0
    4.6152   46.2839   51.9008 H   0  0  0  0  0  0  0  0  0  0  0  0
    6.3512   43.8453   51.8009 H   0  0  0  0  0  0  0  0  0  0  0  0
    6.3034   44.9406   50.3407 H   0  0  0  0  0  0  0  0  0  0  0  0
    7.8439   46.5273   50.1672 H   0  0  0  0  0  0  0  0  0  0  0  0
    9.4955   48.1105   51.1438 H   0  0  0  0  0  0  0  0  0  0  0  0
    9.7328   48.3054   53.6171 H   0  0  0  0  0  0  0  0  0  0  0  0
    8.2882   46.9489   55.1216 H   0  0  0  0  0  0  0  0  0  0  0  0
    6.0205   44.2803   54.0478 H   0  0  0  0  0  0  0  0  0  0  0  0
    6.8127   45.1485   55.4276 H   0  0  0  0  0  0  0  0  0  0  0  0
    4.8230   46.1398   55.7772 H   0  0  0  0  0  0  0  0  0  0  0  0
    5.1688   47.0830   54.2683 H   0  0  0  0  0  0  0  0  0  0  0  0
    1.0745   47.1691   57.5845 H   0  0  0  0  0  0  0  0  0  0  0  0
  1  2  1  0
  2  3  1  0
  2  4  1  0
  4  5  2  0
  5  6  1  0
  6  7  2  0
  7  8  1  0
  8  9  2  0
  9 10  1  0
 10 11  1  0
 11 12  1  0
 12 13  2  0
 12 14  1  0
 14 15  1  0
 15 16  1  0
 16 17  1  0
 17 18  1  0
 18 19  2  0
 19 20  1  0
 20 21  2  0
 21 22  1  0
 22 23  2  0
 23 24  1  0
 24 25  1  0
 10 26  2  0
 26 27  1  0
 27  4  1  0
 27  7  1  0
 25 14  1  0
 23 18  1  0
  1 28  1  0
  1 29  1  0
  1 30  1  0
  2 31  1  0
  3 32  1  0
  3 33  1  0
  3 34  1  0
  8 35  1  0
  9 36  1  0
 11 37  1  0
 15 38  1  0
 15 39  1  0
 16 40  1  0
 16 41  1  0
 17 42  1  0
 17 43  1  0
 19 44  1  0
 20 45  1  0
 21 46  1  0
 22 47  1  0
 24 48  1  0
 24 49  1  0
 25 50  1  0
 25 51  1  0
 26 52  1  0
M  END
>  <meeko>  (4) 
{"is_sidechain": [false], "free_energy": -6.812, "intermolecular_energy": -10.114, "internal_energy": -0.023}

$$$$
ligand_48_conformer_4_docked
     RDKit          3D

 52 55  0  0  0  0  0  0  0  0999 V2000
   -3.2130   44.1150   57.9370 C   0  0  0  0  0  0  0  0  0  0  0  0
   -2.2260   44.6490   56.8920 C   0  0  0  0  0  0  0  0  0  0  0  0
   -2.2490   46.1780   56.8540 C   0  0  0  0  0  0  0  0  0  0  0  0
   -2.5250   44.0940   55.5220 C   0  0  0  0  0  0  0  0  0  0  0  0
   -3.7660   43.7790   55.0790 N   0  0  0  0  0  0  0  0  0  0  0  0
   -3.6560   43.3990   53.8090 N   0  0  0  0  0  0  0  0  0  0  0  0
   -2.3510   43.5040   53.5000 C   0  0  0  0  0  0  0  0  0  0  0  0
   -1.7610   43.2230   52.2720 C   0  0  0  0  0  0  0  0  0  0  0  0
   -0.3750   43.4230   52.1590 C   0  0  0  0  0  0  0  0  0  0  0  0
    0.3770   43.9100   53.2580 C   0  0  0  0  0  0  0  0  0  0  0  0
    1.7970   44.1090   53.1730 N   0  0  0  0  0  0  0  0  0  0  0  0
    2.4140   45.3820   52.9170 C   0  0  0  0  0  0  0  0  0  0  0  0
    1.7260   46.4370   53.0000 O   0  0  0  0  0  0  0  0  0  0  0  0
    3.8290   45.4760   52.6390 N   0  0  0  0  0  0  0  0  0  0  0  0
    4.3780   44.8130   51.4480 C   0  0  0  0  0  0  0  0  0  0  0  0
    5.4070   45.7090   50.7420 C   0  0  0  0  0  0  0  0  0  0  0  0
    6.8740   45.2320   50.9150 C   0  0  0  0  0  0  0  0  0  0  0  0
    7.6240   46.0110   51.9800 C   0  0  0  0  0  0  0  0  0  0  0  0
    8.7280   46.7870   51.5770 C   0  0  0  0  0  0  0  0  0  0  0  0
    9.4700   47.5120   52.5100 C   0  0  0  0  0  0  0  0  0  0  0  0
    9.1230   47.4770   53.8590 C   0  0  0  0  0  0  0  0  0  0  0  0
    8.0240   46.7290   54.2790 C   0  0  0  0  0  0  0  0  0  0  0  0
    7.2560   45.9980   53.3540 C   0  0  0  0  0  0  0  0  0  0  0  0
    5.9970   45.3200   53.8510 C   0  0  0  0  0  0  0  0  0  0  0  0
    4.7460   46.1640   53.5610 C   0  0  0  0  0  0  0  0  0  0  0  0
   -0.2850   44.1560   54.4770 C   0  0  0  0  0  0  0  0  0  0  0  0
   -1.6240   43.9390   54.5360 N   0  0  0  0  0  0  0  0  0  0  0  0
   -2.8274   44.3236   58.9459 H   0  0  0  0  0  0  0  0  0  0  0  0
   -4.1872   44.6091   57.8074 H   0  0  0  0  0  0  0  0  0  0  0  0
   -3.3324   43.0292   57.8074 H   0  0  0  0  0  0  0  0  0  0  0  0
   -1.2200   44.3164   57.1876 H   0  0  0  0  0  0  0  0  0  0  0  0
   -2.2549   46.5703   57.8817 H   0  0  0  0  0  0  0  0  0  0  0  0
   -1.3563   46.5451   56.3265 H   0  0  0  0  0  0  0  0  0  0  0  0
   -3.1524   46.5181   56.3265 H   0  0  0  0  0  0  0  0  0  0  0  0
   -2.3567   42.8583   51.4222 H   0  0  0  0  0  0  0  0  0  0  0  0
    0.1318   43.1996   51.2086 H   0  0  0  0  0  0  0  0  0  0  0  0
    2.4060   43.3160   53.4660 H   0  0  0  0  0  0  0  0  0  0  0  0
    4.8663   43.8753   51.7517 H   0  0  0  0  0  0  0  0  0  0  0  0
    3.5531   44.6102   50.7492 H   0  0  0  0  0  0  0  0  0  0  0  0
    5.1723   45.7270   49.6675 H   0  0  0  0  0  0  0  0  0  0  0  0
    5.3365   46.7047   51.2042 H   0  0  0  0  0  0  0  0  0  0  0  0
    6.8669   44.1687   51.1968 H   0  0  0  0  0  0  0  0  0  0  0  0
    7.3910   45.3971   49.9582 H   0  0  0  0  0  0  0  0  0  0  0  0
    9.0087   46.8219   50.5140 H   0  0  0  0  0  0  0  0  0  0  0  0
   10.3306   48.1124   52.1800 H   0  0  0  0  0  0  0  0  0  0  0  0
    9.7170   48.0404   54.5937 H   0  0  0  0  0  0  0  0  0  0  0  0
    7.7543   46.7101   55.3453 H   0  0  0  0  0  0  0  0  0  0  0  0
    5.8945   44.3463   53.3496 H   0  0  0  0  0  0  0  0  0  0  0  0
    6.0817   45.1946   54.9405 H   0  0  0  0  0  0  0  0  0  0  0  0
    4.2203   46.3595   54.5073 H   0  0  0  0  0  0  0  0  0  0  0  0
    5.0676   47.1037   53.0882 H   0  0  0  0  0  0  0  0  0  0  0  0
    0.2682   44.5144   55.3576 H   0  0  0  0  0  0  0  0  0  0  0  0
  1  2  1  0
  2  3  1  0
  2  4  1  0
  4  5  2  0
  5  6  1  0
  6  7  2  0
  7  8  1  0
  8  9  2  0
  9 10  1  0
 10 11  1  0
 11 12  1  0
 12 13  2  0
 12 14  1  0
 14 15  1  0
 15 16  1  0
 16 17  1  0
 17 18  1  0
 18 19  2  0
 19 20  1  0
 20 21  2  0
 21 22  1  0
 22 23  2  0
 23 24  1  0
 24 25  1  0
 10 26  2  0
 26 27  1  0
 27  4  1  0
 27  7  1  0
 25 14  1  0
 23 18  1  0
  1 28  1  0
  1 29  1  0
  1 30  1  0
  2 31  1  0
  3 32  1  0
  3 33  1  0
  3 34  1  0
  8 35  1  0
  9 36  1  0
 11 37  1  0
 15 38  1  0
 15 39  1  0
 16 40  1  0
 16 41  1  0
 17 42  1  0
 17 43  1  0
 19 44  1  0
 20 45  1  0
 21 46  1  0
 22 47  1  0
 24 48  1  0
 24 49  1  0
 25 50  1  0
 25 51  1  0
 26 52  1  0
M  END
>  <meeko>  (5) 
{"is_sidechain": [false], "free_energy": -6.516, "intermolecular_energy": -9.766, "internal_energy": 0.081}

$$$$
