ligand_11_conformer_2_docked
     RDKit          3D

 40 42  0  0  0  0  0  0  0  0999 V2000
    4.7810   44.1610   52.8450 O   0  0  0  0  0  0  0  0  0  0  0  0
    5.3890   44.0520   51.7460 C   0  0  0  0  0  0  0  0  0  0  0  0
    6.3840   45.0230   51.3810 N   0  0  0  0  0  0  0  0  0  0  0  0
    7.0730   45.8550   52.3320 C   0  0  0  0  0  0  0  0  0  0  0  0
    6.6120   45.9970   53.6530 C   0  0  0  0  0  0  0  0  0  0  0  0
    7.3150   46.7910   54.5640 C   0  0  0  0  0  0  0  0  0  0  0  0
    8.4900   47.4460   54.1800 C   0  0  0  0  0  0  0  0  0  0  0  0
    9.1540   48.2330   55.1340 O   0  0  0  0  0  0  0  0  0  0  0  0
   10.4460   47.9470   55.6650 C   0  0  0  0  0  0  0  0  0  0  0  0
   10.4870   48.2760   57.0090 F   0  0  0  0  0  0  0  0  0  0  0  0
   10.7030   46.5980   55.5260 F   0  0  0  0  0  0  0  0  0  0  0  0
    8.9640   47.2890   52.8650 C   0  0  0  0  0  0  0  0  0  0  0  0
    8.2640   46.4930   51.9540 C   0  0  0  0  0  0  0  0  0  0  0  0
    5.0300   42.9490   50.8200 C   0  0  0  0  0  0  0  0  0  0  0  0
    5.9130   42.5720   49.7920 C   0  0  0  0  0  0  0  0  0  0  0  0
    5.5780   41.5370   48.9130 C   0  0  0  0  0  0  0  0  0  0  0  0
    4.3620   40.8530   49.0480 C   0  0  0  0  0  0  0  0  0  0  0  0
    4.0330   39.8100   48.1160 N   0  0  0  0  0  0  0  0  0  0  0  0
    3.3350   40.0230   46.8810 C   0  0  0  0  0  0  0  0  0  0  0  0
    3.7810   40.9700   46.0130 N   0  0  0  0  0  0  0  0  0  0  0  0
    3.1610   41.1790   44.8220 C   0  0  0  0  0  0  0  0  0  0  0  0
    2.0540   40.4090   44.4690 C   0  0  0  0  0  0  0  0  0  0  0  0
    1.6150   39.4320   45.3610 C   0  0  0  0  0  0  0  0  0  0  0  0
    2.2630   39.2540   46.5430 N   0  0  0  0  0  0  0  0  0  0  0  0
    3.4620   41.2520   50.0510 C   0  0  0  0  0  0  0  0  0  0  0  0
    3.7950   42.2850   50.9310 C   0  0  0  0  0  0  0  0  0  0  0  0
    6.5320   45.2170   50.3660 H   0  0  0  0  0  0  0  0  0  0  0  0
    5.6941   45.4810   53.9710 H   0  0  0  0  0  0  0  0  0  0  0  0
    6.9407   46.9017   55.5924 H   0  0  0  0  0  0  0  0  0  0  0  0
   11.1997   48.5356   55.1215 H   0  0  0  0  0  0  0  0  0  0  0  0
    9.8894   47.7948   52.5523 H   0  0  0  0  0  0  0  0  0  0  0  0
    8.6502   46.3657   50.9319 H   0  0  0  0  0  0  0  0  0  0  0  0
    6.8740   43.0950   49.6786 H   0  0  0  0  0  0  0  0  0  0  0  0
    6.2747   41.2574   48.1090 H   0  0  0  0  0  0  0  0  0  0  0  0
    4.2400   38.8220   48.3880 H   0  0  0  0  0  0  0  0  0  0  0  0
    3.5325   41.9553   44.1369 H   0  0  0  0  0  0  0  0  0  0  0  0
    1.5394   40.5685   43.5099 H   0  0  0  0  0  0  0  0  0  0  0  0
    0.7461   38.8063   45.1092 H   0  0  0  0  0  0  0  0  0  0  0  0
    2.4889   40.7477   50.1439 H   0  0  0  0  0  0  0  0  0  0  0  0
    3.0852   42.5815   51.7173 H   0  0  0  0  0  0  0  0  0  0  0  0
  1  2  2  0
  2  3  1  0
  3  4  1  0
  4  5  2  0
  5  6  1  0
  6  7  2  0
  7  8  1  0
  8  9  1  0
  9 10  1  0
  9 11  1  0
  7 12  1  0
 12 13  2  0
  2 14  1  0
 14 15  2  0
 15 16  1  0
 16 17  2  0
 17 18  1  0
 18 19  1  0
 19 20  2  0
 20 21  1  0
 21 22  2  0
 22 23  1  0
 23 24  2  0
 17 25  1  0
 25 26  2  0
 13  4  1  0
 26 14  1  0
 24 19  1  0
  3 27  1  0
  5 28  1  0
  6 29  1  0
  9 30  1  0
 12 31  1  0
 13 32  1  0
 15 33  1  0
 16 34  1  0
 18 35  1  0
 21 36  1  0
 22 37  1  0
 23 38  1  0
 25 39  1  0
 26 40  1  0
M  END
>  <meeko>  (1) 
{"is_sidechain": [false], "free_energy": -8.607, "intermolecular_energy": -11.626, "internal_energy": -0.05}

$$$$
ligand_11_conformer_2_docked
     RDKit          3D

 40 42  0  0  0  0  0  0  0  0999 V2000
    3.6280   44.5870   54.0580 O   0  0  0  0  0  0  0  0  0  0  0  0
    2.9300   44.9890   53.0880 C   0  0  0  0  0  0  0  0  0  0  0  0
    3.4560   45.9860   52.1960 N   0  0  0  0  0  0  0  0  0  0  0  0
    4.8610   46.2480   52.0320 C   0  0  0  0  0  0  0  0  0  0  0  0
    5.5320   47.1840   52.8380 C   0  0  0  0  0  0  0  0  0  0  0  0
    6.9040   47.4020   52.6750 C   0  0  0  0  0  0  0  0  0  0  0  0
    7.6300   46.6860   51.7170 C   0  0  0  0  0  0  0  0  0  0  0  0
    9.0040   46.9450   51.5940 O   0  0  0  0  0  0  0  0  0  0  0  0
   10.0090   46.4300   52.4640 C   0  0  0  0  0  0  0  0  0  0  0  0
   11.1630   46.1660   51.7470 F   0  0  0  0  0  0  0  0  0  0  0  0
   10.2900   47.3700   53.4360 F   0  0  0  0  0  0  0  0  0  0  0  0
    6.9640   45.7330   50.9230 C   0  0  0  0  0  0  0  0  0  0  0  0
    5.5940   45.5140   51.0870 C   0  0  0  0  0  0  0  0  0  0  0  0
    1.5530   44.4650   52.9140 C   0  0  0  0  0  0  0  0  0  0  0  0
    0.5580   45.2680   52.3300 C   0  0  0  0  0  0  0  0  0  0  0  0
   -0.7430   44.7830   52.1680 C   0  0  0  0  0  0  0  0  0  0  0  0
   -1.0740   43.4840   52.5760 C   0  0  0  0  0  0  0  0  0  0  0  0
   -2.4250   43.0180   52.4210 N   0  0  0  0  0  0  0  0  0  0  0  0
   -2.8610   42.1440   51.3700 C   0  0  0  0  0  0  0  0  0  0  0  0
   -2.8420   42.5800   50.0820 N   0  0  0  0  0  0  0  0  0  0  0  0
   -3.2210   41.7700   49.0600 C   0  0  0  0  0  0  0  0  0  0  0  0
   -3.6290   40.4640   49.3230 C   0  0  0  0  0  0  0  0  0  0  0  0
   -3.6320   40.0230   50.6460 C   0  0  0  0  0  0  0  0  0  0  0  0
   -3.2450   40.8650   51.6400 N   0  0  0  0  0  0  0  0  0  0  0  0
   -0.0920   42.6910   53.1940 C   0  0  0  0  0  0  0  0  0  0  0  0
    1.2090   43.1740   53.3560 C   0  0  0  0  0  0  0  0  0  0  0  0
    2.7810   46.6300   51.7270 H   0  0  0  0  0  0  0  0  0  0  0  0
    4.9752   47.7479   53.6009 H   0  0  0  0  0  0  0  0  0  0  0  0
    7.4168   48.1431   53.3057 H   0  0  0  0  0  0  0  0  0  0  0  0
    9.6462   45.5007   52.9275 H   0  0  0  0  0  0  0  0  0  0  0  0
    7.5245   45.1587   50.1707 H   0  0  0  0  0  0  0  0  0  0  0  0
    5.0851   44.7591   50.4696 H   0  0  0  0  0  0  0  0  0  0  0  0
    0.8053   46.2870   51.9976 H   0  0  0  0  0  0  0  0  0  0  0  0
   -1.5129   45.4261   51.7167 H   0  0  0  0  0  0  0  0  0  0  0  0
   -3.1560   43.4020   53.0630 H   0  0  0  0  0  0  0  0  0  0  0  0
   -3.2059   42.1445   48.0258 H   0  0  0  0  0  0  0  0  0  0  0  0
   -3.9414   39.7965   48.5064 H   0  0  0  0  0  0  0  0  0  0  0  0
   -3.9468   38.9963   50.8843 H   0  0  0  0  0  0  0  0  0  0  0  0
   -0.3494   41.6834   53.5525 H   0  0  0  0  0  0  0  0  0  0  0  0
    1.9708   42.5398   53.8330 H   0  0  0  0  0  0  0  0  0  0  0  0
  1  2  2  0
  2  3  1  0
  3  4  1  0
  4  5  2  0
  5  6  1  0
  6  7  2  0
  7  8  1  0
  8  9  1  0
  9 10  1  0
  9 11  1  0
  7 12  1  0
 12 13  2  0
  2 14  1  0
 14 15  2  0
 15 16  1  0
 16 17  2  0
 17 18  1  0
 18 19  1  0
 19 20  2  0
 20 21  1  0
 21 22  2  0
 22 23  1  0
 23 24  2  0
 17 25  1  0
 25 26  2  0
 13  4  1  0
 26 14  1  0
 24 19  1  0
  3 27  1  0
  5 28  1  0
  6 29  1  0
  9 30  1  0
 12 31  1  0
 13 32  1  0
 15 33  1  0
 16 34  1  0
 18 35  1  0
 21 36  1  0
 22 37  1  0
 23 38  1  0
 25 39  1  0
 26 40  1  0
M  END
>  <meeko>  (2) 
{"is_sidechain": [false], "free_energy": -8.195, "intermolecular_energy": -10.413, "internal_energy": -0.707}

$$$$
ligand_11_conformer_2_docked
     RDKit          3D

 40 42  0  0  0  0  0  0  0  0999 V2000
    7.1550   42.0570   50.0490 O   0  0  0  0  0  0  0  0  0  0  0  0
    6.0020   42.4330   49.7000 C   0  0  0  0  0  0  0  0  0  0  0  0
    5.3720   43.5290   50.3850 N   0  0  0  0  0  0  0  0  0  0  0  0
    6.0950   44.5260   51.1290 C   0  0  0  0  0  0  0  0  0  0  0  0
    7.0760   45.3280   50.5200 C   0  0  0  0  0  0  0  0  0  0  0  0
    7.7470   46.3070   51.2600 C   0  0  0  0  0  0  0  0  0  0  0  0
    7.4460   46.5100   52.6110 C   0  0  0  0  0  0  0  0  0  0  0  0
    8.1510   47.5040   53.3070 O   0  0  0  0  0  0  0  0  0  0  0  0
    9.2980   47.2680   54.1190 C   0  0  0  0  0  0  0  0  0  0  0  0
   10.4270   47.1720   53.3240 F   0  0  0  0  0  0  0  0  0  0  0  0
    9.4560   48.3230   54.9960 F   0  0  0  0  0  0  0  0  0  0  0  0
    6.4500   45.7220   53.2170 C   0  0  0  0  0  0  0  0  0  0  0  0
    5.7770   44.7450   52.4780 C   0  0  0  0  0  0  0  0  0  0  0  0
    5.2920   41.7030   48.6210 C   0  0  0  0  0  0  0  0  0  0  0  0
    5.6480   41.9050   47.2760 C   0  0  0  0  0  0  0  0  0  0  0  0
    4.9780   41.2250   46.2540 C   0  0  0  0  0  0  0  0  0  0  0  0
    3.9490   40.3240   46.5550 C   0  0  0  0  0  0  0  0  0  0  0  0
    3.2600   39.6560   45.4840 N   0  0  0  0  0  0  0  0  0  0  0  0
    2.2090   38.6990   45.6730 C   0  0  0  0  0  0  0  0  0  0  0  0
    0.9120   39.1040   45.6030 N   0  0  0  0  0  0  0  0  0  0  0  0
   -0.1080   38.2200   45.7490 C   0  0  0  0  0  0  0  0  0  0  0  0
    0.1660   36.8700   45.9660 C   0  0  0  0  0  0  0  0  0  0  0  0
    1.4990   36.4660   46.0220 C   0  0  0  0  0  0  0  0  0  0  0  0
    2.4910   37.3810   45.8710 N   0  0  0  0  0  0  0  0  0  0  0  0
    3.5660   40.1460   47.8950 C   0  0  0  0  0  0  0  0  0  0  0  0
    4.2340   40.8250   48.9180 C   0  0  0  0  0  0  0  0  0  0  0  0
    4.3300   43.5380   50.4420 H   0  0  0  0  0  0  0  0  0  0  0  0
    7.3170   45.1849   49.4563 H   0  0  0  0  0  0  0  0  0  0  0  0
    8.5186   46.9231   50.7751 H   0  0  0  0  0  0  0  0  0  0  0  0
    9.1613   46.3287   54.6749 H   0  0  0  0  0  0  0  0  0  0  0  0
    6.1999   45.8756   54.2771 H   0  0  0  0  0  0  0  0  0  0  0  0
    4.9915   44.1428   52.9579 H   0  0  0  0  0  0  0  0  0  0  0  0
    6.4600   42.6035   47.0255 H   0  0  0  0  0  0  0  0  0  0  0  0
    5.2615   41.3992   45.2055 H   0  0  0  0  0  0  0  0  0  0  0  0
    3.5990   39.8130   44.5070 H   0  0  0  0  0  0  0  0  0  0  0  0
   -1.1500   38.5685   45.6962 H   0  0  0  0  0  0  0  0  0  0  0  0
   -0.6494   36.1421   46.0899 H   0  0  0  0  0  0  0  0  0  0  0  0
    1.7470   35.4073   46.1883 H   0  0  0  0  0  0  0  0  0  0  0  0
    2.7353   39.4681   48.1406 H   0  0  0  0  0  0  0  0  0  0  0  0
    3.9298   40.6715   49.9639 H   0  0  0  0  0  0  0  0  0  0  0  0
  1  2  2  0
  2  3  1  0
  3  4  1  0
  4  5  2  0
  5  6  1  0
  6  7  2  0
  7  8  1  0
  8  9  1  0
  9 10  1  0
  9 11  1  0
  7 12  1  0
 12 13  2  0
  2 14  1  0
 14 15  2  0
 15 16  1  0
 16 17  2  0
 17 18  1  0
 18 19  1  0
 19 20  2  0
 20 21  1  0
 21 22  2  0
 22 23  1  0
 23 24  2  0
 17 25  1  0
 25 26  2  0
 13  4  1  0
 26 14  1  0
 24 19  1  0
  3 27  1  0
  5 28  1  0
  6 29  1  0
  9 30  1  0
 12 31  1  0
 13 32  1  0
 15 33  1  0
 16 34  1  0
 18 35  1  0
 21 36  1  0
 22 37  1  0
 23 38  1  0
 25 39  1  0
 26 40  1  0
M  END
>  <meeko>  (3) 
{"is_sidechain": [false], "free_energy": -8.155, "intermolecular_energy": -10.424, "internal_energy": -0.642}

$$$$
ligand_11_conformer_2_docked
     RDKit          3D

 40 42  0  0  0  0  0  0  0  0999 V2000
    7.1220   41.9700   49.9700 O   0  0  0  0  0  0  0  0  0  0  0  0
    6.0100   42.4140   49.5730 C   0  0  0  0  0  0  0  0  0  0  0  0
    5.4190   43.5470   50.2310 N   0  0  0  0  0  0  0  0  0  0  0  0
    6.1680   44.5000   51.0070 C   0  0  0  0  0  0  0  0  0  0  0  0
    7.1830   45.2820   50.4280 C   0  0  0  0  0  0  0  0  0  0  0  0
    7.8790   46.2180   51.1980 C   0  0  0  0  0  0  0  0  0  0  0  0
    7.5710   46.3980   52.5510 C   0  0  0  0  0  0  0  0  0  0  0  0
    8.3030   47.3490   53.2790 O   0  0  0  0  0  0  0  0  0  0  0  0
    9.6970   47.2580   53.5610 C   0  0  0  0  0  0  0  0  0  0  0  0
    9.9740   47.8660   54.7740 F   0  0  0  0  0  0  0  0  0  0  0  0
   10.0570   45.9270   53.6350 F   0  0  0  0  0  0  0  0  0  0  0  0
    6.5420   45.6300   53.1280 C   0  0  0  0  0  0  0  0  0  0  0  0
    5.8440   44.6960   52.3580 C   0  0  0  0  0  0  0  0  0  0  0  0
    5.3040   41.7270   48.4630 C   0  0  0  0  0  0  0  0  0  0  0  0
    5.6820   41.9630   47.1300 C   0  0  0  0  0  0  0  0  0  0  0  0
    5.0170   41.3230   46.0790 C   0  0  0  0  0  0  0  0  0  0  0  0
    3.9690   40.4300   46.3400 C   0  0  0  0  0  0  0  0  0  0  0  0
    3.2860   39.8040   45.2400 N   0  0  0  0  0  0  0  0  0  0  0  0
    2.2460   40.4300   44.4750 C   0  0  0  0  0  0  0  0  0  0  0  0
    1.6450   41.5530   44.9530 N   0  0  0  0  0  0  0  0  0  0  0  0
    0.6770   42.1870   44.2420 C   0  0  0  0  0  0  0  0  0  0  0  0
    0.2920   41.6940   42.9970 C   0  0  0  0  0  0  0  0  0  0  0  0
    0.9250   40.5510   42.5120 C   0  0  0  0  0  0  0  0  0  0  0  0
    1.8890   39.9450   43.2540 N   0  0  0  0  0  0  0  0  0  0  0  0
    3.5640   40.2200   47.6690 C   0  0  0  0  0  0  0  0  0  0  0  0
    4.2280   40.8580   48.7200 C   0  0  0  0  0  0  0  0  0  0  0  0
    4.3780   43.6200   50.2430 H   0  0  0  0  0  0  0  0  0  0  0  0
    7.4305   45.1565   49.3636 H   0  0  0  0  0  0  0  0  0  0  0  0
    8.6763   46.8187   50.7361 H   0  0  0  0  0  0  0  0  0  0  0  0
   10.2618   47.7612   52.7624 H   0  0  0  0  0  0  0  0  0  0  0  0
    6.2864   45.7657   54.1892 H   0  0  0  0  0  0  0  0  0  0  0  0
    5.0335   44.1093   52.8150 H   0  0  0  0  0  0  0  0  0  0  0  0
    6.5074   42.6565   46.9116 H   0  0  0  0  0  0  0  0  0  0  0  0
    5.3188   41.5221   45.0401 H   0  0  0  0  0  0  0  0  0  0  0  0
    3.5000   38.8020   45.0330 H   0  0  0  0  0  0  0  0  0  0  0  0
    0.1971   43.0893   44.6489 H   0  0  0  0  0  0  0  0  0  0  0  0
   -0.4927   42.1949   42.4110 H   0  0  0  0  0  0  0  0  0  0  0  0
    0.6450   40.1402   41.5308 H   0  0  0  0  0  0  0  0  0  0  0  0
    2.7190   39.5492   47.8834 H   0  0  0  0  0  0  0  0  0  0  0  0
    3.9067   40.6793   49.7568 H   0  0  0  0  0  0  0  0  0  0  0  0
  1  2  2  0
  2  3  1  0
  3  4  1  0
  4  5  2  0
  5  6  1  0
  6  7  2  0
  7  8  1  0
  8  9  1  0
  9 10  1  0
  9 11  1  0
  7 12  1  0
 12 13  2  0
  2 14  1  0
 14 15  2  0
 15 16  1  0
 16 17  2  0
 17 18  1  0
 18 19  1  0
 19 20  2  0
 20 21  1  0
 21 22  2  0
 22 23  1  0
 23 24  2  0
 17 25  1  0
 25 26  2  0
 13  4  1  0
 26 14  1  0
 24 19  1  0
  3 27  1  0
  5 28  1  0
  6 29  1  0
  9 30  1  0
 12 31  1  0
 13 32  1  0
 15 33  1  0
 16 34  1  0
 18 35  1  0
 21 36  1  0
 22 37  1  0
 23 38  1  0
 25 39  1  0
 26 40  1  0
M  END
>  <meeko>  (4) 
{"is_sidechain": [false], "free_energy": -8.146, "intermolecular_energy": -10.347, "internal_energy": -0.707}

$$$$
ligand_11_conformer_2_docked
     RDKit          3D

 40 42  0  0  0  0  0  0  0  0999 V2000
    2.4460   47.2240   52.3370 O   0  0  0  0  0  0  0  0  0  0  0  0
    2.3690   45.9960   52.6160 C   0  0  0  0  0  0  0  0  0  0  0  0
    3.4840   45.1310   52.3430 N   0  0  0  0  0  0  0  0  0  0  0  0
    4.8370   45.5970   52.1950 C   0  0  0  0  0  0  0  0  0  0  0  0
    5.5300   46.1920   53.2630 C   0  0  0  0  0  0  0  0  0  0  0  0
    6.8530   46.6140   53.1000 C   0  0  0  0  0  0  0  0  0  0  0  0
    7.5110   46.4400   51.8770 C   0  0  0  0  0  0  0  0  0  0  0  0
    8.8370   46.8840   51.7670 O   0  0  0  0  0  0  0  0  0  0  0  0
    9.9010   46.4850   52.6280 C   0  0  0  0  0  0  0  0  0  0  0  0
   11.0460   46.2520   51.8870 F   0  0  0  0  0  0  0  0  0  0  0  0
   10.1510   47.4960   53.5350 F   0  0  0  0  0  0  0  0  0  0  0  0
    6.8260   45.8260   50.8120 C   0  0  0  0  0  0  0  0  0  0  0  0
    5.5040   45.4020   50.9750 C   0  0  0  0  0  0  0  0  0  0  0  0
    1.1060   45.4540   53.1760 C   0  0  0  0  0  0  0  0  0  0  0  0
   -0.0240   45.3000   52.3540 C   0  0  0  0  0  0  0  0  0  0  0  0
   -1.2180   44.7950   52.8760 C   0  0  0  0  0  0  0  0  0  0  0  0
   -1.3050   44.4250   54.2250 C   0  0  0  0  0  0  0  0  0  0  0  0
   -2.5530   43.9310   54.7420 N   0  0  0  0  0  0  0  0  0  0  0  0
   -2.9210   43.9630   56.1280 C   0  0  0  0  0  0  0  0  0  0  0  0
   -3.3560   45.1280   56.6800 N   0  0  0  0  0  0  0  0  0  0  0  0
   -3.7400   45.1880   57.9820 C   0  0  0  0  0  0  0  0  0  0  0  0
   -3.6990   44.0410   58.7720 C   0  0  0  0  0  0  0  0  0  0  0  0
   -3.2640   42.8510   58.1920 C   0  0  0  0  0  0  0  0  0  0  0  0
   -2.8880   42.8320   56.8860 N   0  0  0  0  0  0  0  0  0  0  0  0
   -0.1890   44.6120   55.0580 C   0  0  0  0  0  0  0  0  0  0  0  0
    1.0060   45.1160   54.5380 C   0  0  0  0  0  0  0  0  0  0  0  0
    3.2860   44.1290   52.1270 H   0  0  0  0  0  0  0  0  0  0  0  0
    5.0287   46.3265   54.2328 H   0  0  0  0  0  0  0  0  0  0  0  0
    7.3816   47.0871   53.9407 H   0  0  0  0  0  0  0  0  0  0  0  0
    9.6144   45.5632   53.1555 H   0  0  0  0  0  0  0  0  0  0  0  0
    7.3331   45.6791   49.8470 H   0  0  0  0  0  0  0  0  0  0  0  0
    4.9818   44.9114   50.1403 H   0  0  0  0  0  0  0  0  0  0  0  0
    0.0320   45.5792   51.2915 H   0  0  0  0  0  0  0  0  0  0  0  0
   -2.0965   44.6871   52.2229 H   0  0  0  0  0  0  0  0  0  0  0  0
   -3.2010   43.4440   54.0830 H   0  0  0  0  0  0  0  0  0  0  0  0
   -4.0828   46.1408   58.4118 H   0  0  0  0  0  0  0  0  0  0  0  0
   -4.0029   44.0741   59.8287 H   0  0  0  0  0  0  0  0  0  0  0  0
   -3.2250   41.9286   58.7901 H   0  0  0  0  0  0  0  0  0  0  0  0
   -0.2565   44.3599   56.1266 H   0  0  0  0  0  0  0  0  0  0  0  0
    1.8753   45.2495   55.1987 H   0  0  0  0  0  0  0  0  0  0  0  0
  1  2  2  0
  2  3  1  0
  3  4  1  0
  4  5  2  0
  5  6  1  0
  6  7  2  0
  7  8  1  0
  8  9  1  0
  9 10  1  0
  9 11  1  0
  7 12  1  0
 12 13  2  0
  2 14  1  0
 14 15  2  0
 15 16  1  0
 16 17  2  0
 17 18  1  0
 18 19  1  0
 19 20  2  0
 20 21  1  0
 21 22  2  0
 22 23  1  0
 23 24  2  0
 17 25  1  0
 25 26  2  0
 13  4  1  0
 26 14  1  0
 24 19  1  0
  3 27  1  0
  5 28  1  0
  6 29  1  0
  9 30  1  0
 12 31  1  0
 13 32  1  0
 15 33  1  0
 16 34  1  0
 18 35  1  0
 21 36  1  0
 22 37  1  0
 23 38  1  0
 25 39  1  0
 26 40  1  0
M  END
>  <meeko>  (5) 
{"is_sidechain": [false], "free_energy": -8.143, "intermolecular_energy": -10.371, "internal_energy": -0.678}

$$$$
