ligand_16_conformer_4_docked
     RDKit          3D

 43 45  0  0  0  0  0  0  0  0999 V2000
    0.4100   45.7540   52.3750 O   0  0  0  0  0  0  0  0  0  0  0  0
    1.3470   45.1090   52.9200 C   0  0  0  0  0  0  0  0  0  0  0  0
    1.0680   44.2660   54.0520 N   0  0  0  0  0  0  0  0  0  0  0  0
   -0.0800   44.4270   54.9020 C   0  0  0  0  0  0  0  0  0  0  0  0
   -1.2640   43.7410   54.5970 C   0  0  0  0  0  0  0  0  0  0  0  0
   -2.3850   43.8650   55.4200 C   0  0  0  0  0  0  0  0  0  0  0  0
   -2.3320   44.6650   56.5640 C   0  0  0  0  0  0  0  0  0  0  0  0
   -1.1440   45.3430   56.8990 C   0  0  0  0  0  0  0  0  0  0  0  0
   -1.0330   46.1450   58.0440 O   0  0  0  0  0  0  0  0  0  0  0  0
   -1.2470   47.5550   58.0640 C   0  0  0  0  0  0  0  0  0  0  0  0
   -0.5170   48.1640   59.2520 C   0  0  0  0  0  0  0  0  0  0  0  0
    0.7250   47.5740   59.3970 F   0  0  0  0  0  0  0  0  0  0  0  0
   -0.0250   45.2140   56.0680 C   0  0  0  0  0  0  0  0  0  0  0  0
    2.7150   45.1920   52.3520 C   0  0  0  0  0  0  0  0  0  0  0  0
    2.9700   46.0090   51.2360 C   0  0  0  0  0  0  0  0  0  0  0  0
    4.2560   46.0980   50.6980 C   0  0  0  0  0  0  0  0  0  0  0  0
    5.3200   45.3890   51.2790 C   0  0  0  0  0  0  0  0  0  0  0  0
    6.6480   45.4450   50.7310 N   0  0  0  0  0  0  0  0  0  0  0  0
    7.7820   45.9980   51.4160 C   0  0  0  0  0  0  0  0  0  0  0  0
    9.0350   45.6040   51.0630 N   0  0  0  0  0  0  0  0  0  0  0  0
   10.1290   46.0840   51.7100 C   0  0  0  0  0  0  0  0  0  0  0  0
    9.9760   46.9870   52.7600 C   0  0  0  0  0  0  0  0  0  0  0  0
    8.6850   47.3720   53.1210 C   0  0  0  0  0  0  0  0  0  0  0  0
    7.6170   46.8700   52.4490 N   0  0  0  0  0  0  0  0  0  0  0  0
    5.0670   44.5620   52.3830 C   0  0  0  0  0  0  0  0  0  0  0  0
    3.7800   44.4720   52.9220 C   0  0  0  0  0  0  0  0  0  0  0  0
    1.6690   43.4230   54.1940 H   0  0  0  0  0  0  0  0  0  0  0  0
   -1.3101   43.1010   53.7036 H   0  0  0  0  0  0  0  0  0  0  0  0
   -3.3128   43.3311   55.1668 H   0  0  0  0  0  0  0  0  0  0  0  0
   -3.2204   44.7656   57.2047 H   0  0  0  0  0  0  0  0  0  0  0  0
   -0.8634   47.9970   57.1326 H   0  0  0  0  0  0  0  0  0  0  0  0
   -2.3241   47.7603   58.1520 H   0  0  0  0  0  0  0  0  0  0  0  0
   -0.3901   49.2441   59.0869 H   0  0  0  0  0  0  0  0  0  0  0  0
   -1.1068   47.9928   60.1646 H   0  0  0  0  0  0  0  0  0  0  0  0
    0.9086   45.7338   56.3292 H   0  0  0  0  0  0  0  0  0  0  0  0
    2.1488   46.5834   50.7824 H   0  0  0  0  0  0  0  0  0  0  0  0
    4.4364   46.7272   49.8139 H   0  0  0  0  0  0  0  0  0  0  0  0
    6.8200   44.9860   49.8090 H   0  0  0  0  0  0  0  0  0  0  0  0
   11.1350   45.7599   51.4051 H   0  0  0  0  0  0  0  0  0  0  0  0
   10.8523   47.3866   53.2914 H   0  0  0  0  0  0  0  0  0  0  0  0
    8.5322   48.0807   53.9482 H   0  0  0  0  0  0  0  0  0  0  0  0
    5.8872   43.9798   52.8282 H   0  0  0  0  0  0  0  0  0  0  0  0
    3.5991   43.8329   53.7989 H   0  0  0  0  0  0  0  0  0  0  0  0
  1  2  2  0
  2  3  1  0
  3  4  1  0
  4  5  2  0
  5  6  1  0
  6  7  2  0
  7  8  1  0
  8  9  1  0
  9 10  1  0
 10 11  1  0
 11 12  1  0
  8 13  2  0
  2 14  1  0
 14 15  2  0
 15 16  1  0
 16 17  2  0
 17 18  1  0
 18 19  1  0
 19 20  2  0
 20 21  1  0
 21 22  2  0
 22 23  1  0
 23 24  2  0
 17 25  1  0
 25 26  2  0
 13  4  1  0
 26 14  1  0
 24 19  1  0
  3 27  1  0
  5 28  1  0
  6 29  1  0
  7 30  1  0
 10 31  1  0
 10 32  1  0
 11 33  1  0
 11 34  1  0
 13 35  1  0
 15 36  1  0
 16 37  1  0
 18 38  1  0
 21 39  1  0
 22 40  1  0
 23 41  1  0
 25 42  1  0
 26 43  1  0
M  END
>  <meeko>  (1) 
{"is_sidechain": [false], "free_energy": -7.735, "intermolecular_energy": -10.9, "internal_energy": -0.631}

$$$$
ligand_16_conformer_4_docked
     RDKit          3D

 43 45  0  0  0  0  0  0  0  0999 V2000
    3.9210   43.1750   52.7230 O   0  0  0  0  0  0  0  0  0  0  0  0
    3.5430   44.3490   52.9880 C   0  0  0  0  0  0  0  0  0  0  0  0
    4.1510   45.4630   52.3110 N   0  0  0  0  0  0  0  0  0  0  0  0
    5.4480   45.4100   51.6940 C   0  0  0  0  0  0  0  0  0  0  0  0
    5.6860   44.4810   50.6700 C   0  0  0  0  0  0  0  0  0  0  0  0
    6.9310   44.4250   50.0420 C   0  0  0  0  0  0  0  0  0  0  0  0
    7.9480   45.3060   50.4180 C   0  0  0  0  0  0  0  0  0  0  0  0
    7.7200   46.2600   51.4270 C   0  0  0  0  0  0  0  0  0  0  0  0
    8.7020   47.1770   51.8310 O   0  0  0  0  0  0  0  0  0  0  0  0
    9.7890   46.8630   52.7010 C   0  0  0  0  0  0  0  0  0  0  0  0
    9.5630   47.5190   54.0550 C   0  0  0  0  0  0  0  0  0  0  0  0
   10.6170   47.2290   54.9020 F   0  0  0  0  0  0  0  0  0  0  0  0
    6.4690   46.3090   52.0540 C   0  0  0  0  0  0  0  0  0  0  0  0
    2.4420   44.5570   53.9600 C   0  0  0  0  0  0  0  0  0  0  0  0
    2.6800   45.2480   55.1620 C   0  0  0  0  0  0  0  0  0  0  0  0
    1.6480   45.4540   56.0810 C   0  0  0  0  0  0  0  0  0  0  0  0
    0.3490   44.9930   55.8060 C   0  0  0  0  0  0  0  0  0  0  0  0
   -0.7250   45.1720   56.7450 N   0  0  0  0  0  0  0  0  0  0  0  0
   -1.0460   46.4200   57.3760 C   0  0  0  0  0  0  0  0  0  0  0  0
   -0.3290   46.8270   58.4580 N   0  0  0  0  0  0  0  0  0  0  0  0
   -0.6240   47.9880   59.0980 C   0  0  0  0  0  0  0  0  0  0  0  0
   -1.6830   48.7780   58.6540 C   0  0  0  0  0  0  0  0  0  0  0  0
   -2.4190   48.3410   57.5530 C   0  0  0  0  0  0  0  0  0  0  0  0
   -2.0930   47.1740   56.9400 N   0  0  0  0  0  0  0  0  0  0  0  0
    0.1130   44.2910   54.6160 C   0  0  0  0  0  0  0  0  0  0  0  0
    1.1450   44.0840   53.6960 C   0  0  0  0  0  0  0  0  0  0  0  0
    3.5710   46.3190   52.1600 H   0  0  0  0  0  0  0  0  0  0  0  0
    4.8862   43.7923   50.3601 H   0  0  0  0  0  0  0  0  0  0  0  0
    7.1121   43.6850   49.2486 H   0  0  0  0  0  0  0  0  0  0  0  0
    8.9295   45.2538   49.9241 H   0  0  0  0  0  0  0  0  0  0  0  0
    9.8529   45.7723   52.8285 H   0  0  0  0  0  0  0  0  0  0  0  0
   10.7268   47.2376   52.2648 H   0  0  0  0  0  0  0  0  0  0  0  0
    9.4897   48.6087   53.9243 H   0  0  0  0  0  0  0  0  0  0  0  0
    8.6307   47.1327   54.4927 H   0  0  0  0  0  0  0  0  0  0  0  0
    6.2822   47.0588   52.8369 H   0  0  0  0  0  0  0  0  0  0  0  0
    3.6882   45.6298   55.3804 H   0  0  0  0  0  0  0  0  0  0  0  0
    1.8533   45.9799   57.0251 H   0  0  0  0  0  0  0  0  0  0  0  0
   -1.3640   44.3640   56.9210 H   0  0  0  0  0  0  0  0  0  0  0  0
   -0.0275   48.3047   59.9663 H   0  0  0  0  0  0  0  0  0  0  0  0
   -1.9320   49.7227   59.1595 H   0  0  0  0  0  0  0  0  0  0  0  0
   -3.2628   48.9411   57.1815 H   0  0  0  0  0  0  0  0  0  0  0  0
   -0.8929   43.8996   54.4042 H   0  0  0  0  0  0  0  0  0  0  0  0
    0.9404   43.5468   52.7582 H   0  0  0  0  0  0  0  0  0  0  0  0
  1  2  2  0
  2  3  1  0
  3  4  1  0
  4  5  2  0
  5  6  1  0
  6  7  2  0
  7  8  1  0
  8  9  1  0
  9 10  1  0
 10 11  1  0
 11 12  1  0
  8 13  2  0
  2 14  1  0
 14 15  2  0
 15 16  1  0
 16 17  2  0
 17 18  1  0
 18 19  1  0
 19 20  2  0
 20 21  1  0
 21 22  2  0
 22 23  1  0
 23 24  2  0
 17 25  1  0
 25 26  2  0
 13  4  1  0
 26 14  1  0
 24 19  1  0
  3 27  1  0
  5 28  1  0
  6 29  1  0
  7 30  1  0
 10 31  1  0
 10 32  1  0
 11 33  1  0
 11 34  1  0
 13 35  1  0
 15 36  1  0
 16 37  1  0
 18 38  1  0
 21 39  1  0
 22 40  1  0
 23 41  1  0
 25 42  1  0
 26 43  1  0
M  END
>  <meeko>  (2) 
{"is_sidechain": [false], "free_energy": -7.674, "intermolecular_energy": -11.215, "internal_energy": -0.23}

$$$$
ligand_16_conformer_4_docked
     RDKit          3D

 43 45  0  0  0  0  0  0  0  0999 V2000
    4.8420   44.2020   53.5550 O   0  0  0  0  0  0  0  0  0  0  0  0
    3.9590   44.2740   52.6560 C   0  0  0  0  0  0  0  0  0  0  0  0
    4.3270   44.0790   51.2790 N   0  0  0  0  0  0  0  0  0  0  0  0
    5.6640   44.2540   50.7780 C   0  0  0  0  0  0  0  0  0  0  0  0
    6.2190   43.2750   49.9410 C   0  0  0  0  0  0  0  0  0  0  0  0
    7.5070   43.4340   49.4270 C   0  0  0  0  0  0  0  0  0  0  0  0
    8.2500   44.5770   49.7300 C   0  0  0  0  0  0  0  0  0  0  0  0
    7.7000   45.5810   50.5500 C   0  0  0  0  0  0  0  0  0  0  0  0
    8.3970   46.7540   50.8720 O   0  0  0  0  0  0  0  0  0  0  0  0
    8.5030   47.2930   52.1880 C   0  0  0  0  0  0  0  0  0  0  0  0
    9.7260   46.7110   52.8810 C   0  0  0  0  0  0  0  0  0  0  0  0
   10.7210   46.4590   51.9530 F   0  0  0  0  0  0  0  0  0  0  0  0
    6.4080   45.4140   51.0630 C   0  0  0  0  0  0  0  0  0  0  0  0
    2.5460   44.5090   53.0390 C   0  0  0  0  0  0  0  0  0  0  0  0
    1.5500   44.6010   52.0510 C   0  0  0  0  0  0  0  0  0  0  0  0
    0.2150   44.8170   52.4030 C   0  0  0  0  0  0  0  0  0  0  0  0
   -0.1550   44.9230   53.7540 C   0  0  0  0  0  0  0  0  0  0  0  0
   -1.5180   45.1690   54.1420 N   0  0  0  0  0  0  0  0  0  0  0  0
   -2.0590   44.8510   55.4320 C   0  0  0  0  0  0  0  0  0  0  0  0
   -2.3140   43.5530   55.7510 N   0  0  0  0  0  0  0  0  0  0  0  0
   -2.8540   43.2200   56.9520 C   0  0  0  0  0  0  0  0  0  0  0  0
   -3.1660   44.2150   57.8760 C   0  0  0  0  0  0  0  0  0  0  0  0
   -2.9130   45.5420   57.5310 C   0  0  0  0  0  0  0  0  0  0  0  0
   -2.3720   45.8360   56.3200 N   0  0  0  0  0  0  0  0  0  0  0  0
    0.8370   44.8470   54.7410 C   0  0  0  0  0  0  0  0  0  0  0  0
    2.1730   44.6310   54.3900 C   0  0  0  0  0  0  0  0  0  0  0  0
    3.6110   43.6780   50.6320 H   0  0  0  0  0  0  0  0  0  0  0  0
    5.6361   42.3770   49.6882 H   0  0  0  0  0  0  0  0  0  0  0  0
    7.9386   42.6557   48.7805 H   0  0  0  0  0  0  0  0  0  0  0  0
    9.2670   44.6933   49.3273 H   0  0  0  0  0  0  0  0  0  0  0  0
    8.6018   48.3869   52.1287 H   0  0  0  0  0  0  0  0  0  0  0  0
    7.6007   47.0353   52.7620 H   0  0  0  0  0  0  0  0  0  0  0  0
   10.0975   47.4284   53.6275 H   0  0  0  0  0  0  0  0  0  0  0  0
    9.4466   45.7689   53.3754 H   0  0  0  0  0  0  0  0  0  0  0  0
    5.9692   46.1990   51.6964 H   0  0  0  0  0  0  0  0  0  0  0  0
    1.8243   44.5020   50.9904 H   0  0  0  0  0  0  0  0  0  0  0  0
   -0.5504   44.9045   51.6178 H   0  0  0  0  0  0  0  0  0  0  0  0
   -2.1350   45.6820   53.4730 H   0  0  0  0  0  0  0  0  0  0  0  0
   -3.0451   42.1644   57.1952 H   0  0  0  0  0  0  0  0  0  0  0  0
   -3.6012   43.9599   58.8535 H   0  0  0  0  0  0  0  0  0  0  0  0
   -3.1512   46.3499   58.2385 H   0  0  0  0  0  0  0  0  0  0  0  0
    0.5623   44.9582   55.8003 H   0  0  0  0  0  0  0  0  0  0  0  0
    2.9385   44.5559   55.1764 H   0  0  0  0  0  0  0  0  0  0  0  0
  1  2  2  0
  2  3  1  0
  3  4  1  0
  4  5  2  0
  5  6  1  0
  6  7  2  0
  7  8  1  0
  8  9  1  0
  9 10  1  0
 10 11  1  0
 11 12  1  0
  8 13  2  0
  2 14  1  0
 14 15  2  0
 15 16  1  0
 16 17  2  0
 17 18  1  0
 18 19  1  0
 19 20  2  0
 20 21  1  0
 21 22  2  0
 22 23  1  0
 23 24  2  0
 17 25  1  0
 25 26  2  0
 13  4  1  0
 26 14  1  0
 24 19  1  0
  3 27  1  0
  5 28  1  0
  6 29  1  0
  7 30  1  0
 10 31  1  0
 10 32  1  0
 11 33  1  0
 11 34  1  0
 13 35  1  0
 15 36  1  0
 16 37  1  0
 18 38  1  0
 21 39  1  0
 22 40  1  0
 23 41  1  0
 25 42  1  0
 26 43  1  0
M  END
>  <meeko>  (3) 
{"is_sidechain": [false], "free_energy": -7.561, "intermolecular_energy": -10.649, "internal_energy": -0.637}

$$$$
ligand_16_conformer_4_docked
     RDKit          3D

 43 45  0  0  0  0  0  0  0  0999 V2000
    4.9880   44.1930   53.5980 O   0  0  0  0  0  0  0  0  0  0  0  0
    4.2460   45.0140   52.9920 C   0  0  0  0  0  0  0  0  0  0  0  0
    4.8060   45.8640   51.9760 N   0  0  0  0  0  0  0  0  0  0  0  0
    6.2040   46.1910   51.8900 C   0  0  0  0  0  0  0  0  0  0  0  0
    6.9790   45.6320   50.8640 C   0  0  0  0  0  0  0  0  0  0  0  0
    8.3330   45.9500   50.7480 C   0  0  0  0  0  0  0  0  0  0  0  0
    8.9260   46.8410   51.6460 C   0  0  0  0  0  0  0  0  0  0  0  0
    8.1570   47.4290   52.6690 C   0  0  0  0  0  0  0  0  0  0  0  0
    8.6990   48.3410   53.5870 O   0  0  0  0  0  0  0  0  0  0  0  0
    9.0440   48.0200   54.9330 C   0  0  0  0  0  0  0  0  0  0  0  0
   10.3090   47.1750   54.9480 C   0  0  0  0  0  0  0  0  0  0  0  0
   10.9910   47.3650   56.1360 F   0  0  0  0  0  0  0  0  0  0  0  0
    6.8000   47.1040   52.7790 C   0  0  0  0  0  0  0  0  0  0  0  0
    2.7960   45.0540   53.3030 C   0  0  0  0  0  0  0  0  0  0  0  0
    2.3540   44.9310   54.6330 C   0  0  0  0  0  0  0  0  0  0  0  0
    0.9910   44.9730   54.9360 C   0  0  0  0  0  0  0  0  0  0  0  0
    0.0420   45.1630   53.9180 C   0  0  0  0  0  0  0  0  0  0  0  0
   -1.3680   45.1870   54.2010 N   0  0  0  0  0  0  0  0  0  0  0  0
   -1.9470   44.7830   55.4510 C   0  0  0  0  0  0  0  0  0  0  0  0
   -2.2100   43.4670   55.6730 N   0  0  0  0  0  0  0  0  0  0  0  0
   -2.7850   43.0530   56.8320 C   0  0  0  0  0  0  0  0  0  0  0  0
   -3.1240   43.9840   57.8120 C   0  0  0  0  0  0  0  0  0  0  0  0
   -2.8620   45.3310   57.5650 C   0  0  0  0  0  0  0  0  0  0  0  0
   -2.2860   45.7050   56.3940 N   0  0  0  0  0  0  0  0  0  0  0  0
    0.4780   45.2710   52.5910 C   0  0  0  0  0  0  0  0  0  0  0  0
    1.8420   45.2290   52.2860 C   0  0  0  0  0  0  0  0  0  0  0  0
    4.1840   46.1660   51.1920 H   0  0  0  0  0  0  0  0  0  0  0  0
    6.5170   44.9385   50.1460 H   0  0  0  0  0  0  0  0  0  0  0  0
    8.9355   45.4975   49.9466 H   0  0  0  0  0  0  0  0  0  0  0  0
    9.9950   47.0836   51.5539 H   0  0  0  0  0  0  0  0  0  0  0  0
    9.2169   48.9479   55.4978 H   0  0  0  0  0  0  0  0  0  0  0  0
    8.2217   47.4548   55.3960 H   0  0  0  0  0  0  0  0  0  0  0  0
   10.0390   46.1133   54.8488 H   0  0  0  0  0  0  0  0  0  0  0  0
   10.9541   47.4760   54.1094 H   0  0  0  0  0  0  0  0  0  0  0  0
    6.1924   47.5680   53.5699 H   0  0  0  0  0  0  0  0  0  0  0  0
    3.0883   44.8006   55.4415 H   0  0  0  0  0  0  0  0  0  0  0  0
    0.6588   44.8566   55.9782 H   0  0  0  0  0  0  0  0  0  0  0  0
   -2.0070   45.5970   53.4840 H   0  0  0  0  0  0  0  0  0  0  0  0
   -2.9829   41.9836   56.9969 H   0  0  0  0  0  0  0  0  0  0  0  0
   -3.5869   43.6640   58.7572 H   0  0  0  0  0  0  0  0  0  0  0  0
   -3.1217   46.0896   58.3180 H   0  0  0  0  0  0  0  0  0  0  0  0
   -0.2585   45.3898   51.7826 H   0  0  0  0  0  0  0  0  0  0  0  0
    2.1710   45.3338   51.2416 H   0  0  0  0  0  0  0  0  0  0  0  0
  1  2  2  0
  2  3  1  0
  3  4  1  0
  4  5  2  0
  5  6  1  0
  6  7  2  0
  7  8  1  0
  8  9  1  0
  9 10  1  0
 10 11  1  0
 11 12  1  0
  8 13  2  0
  2 14  1  0
 14 15  2  0
 15 16  1  0
 16 17  2  0
 17 18  1  0
 18 19  1  0
 19 20  2  0
 20 21  1  0
 21 22  2  0
 22 23  1  0
 23 24  2  0
 17 25  1  0
 25 26  2  0
 13  4  1  0
 26 14  1  0
 24 19  1  0
  3 27  1  0
  5 28  1  0
  6 29  1  0
  7 30  1  0
 10 31  1  0
 10 32  1  0
 11 33  1  0
 11 34  1  0
 13 35  1  0
 15 36  1  0
 16 37  1  0
 18 38  1  0
 21 39  1  0
 22 40  1  0
 23 41  1  0
 25 42  1  0
 26 43  1  0
M  END
>  <meeko>  (4) 
{"is_sidechain": [false], "free_energy": -7.488, "intermolecular_energy": -10.537, "internal_energy": -0.646}

$$$$
ligand_16_conformer_4_docked
     RDKit          3D

 43 45  0  0  0  0  0  0  0  0999 V2000
    4.9090   48.0200   53.6770 O   0  0  0  0  0  0  0  0  0  0  0  0
    4.8140   46.7880   53.9350 C   0  0  0  0  0  0  0  0  0  0  0  0
    6.0030   46.0180   54.1810 N   0  0  0  0  0  0  0  0  0  0  0  0
    7.3110   46.4030   53.7260 C   0  0  0  0  0  0  0  0  0  0  0  0
    8.1330   47.1720   54.5620 C   0  0  0  0  0  0  0  0  0  0  0  0
    9.4150   47.5400   54.1500 C   0  0  0  0  0  0  0  0  0  0  0  0
    9.8960   47.1330   52.9040 C   0  0  0  0  0  0  0  0  0  0  0  0
    9.0950   46.3400   52.0600 C   0  0  0  0  0  0  0  0  0  0  0  0
    9.5360   45.8920   50.8070 O   0  0  0  0  0  0  0  0  0  0  0  0
    9.5490   44.5260   50.3980 C   0  0  0  0  0  0  0  0  0  0  0  0
    8.4860   44.3020   49.3330 C   0  0  0  0  0  0  0  0  0  0  0  0
    7.8990   43.0610   49.5030 F   0  0  0  0  0  0  0  0  0  0  0  0
    7.8100   45.9770   52.4800 C   0  0  0  0  0  0  0  0  0  0  0  0
    3.4710   46.1660   54.0300 C   0  0  0  0  0  0  0  0  0  0  0  0
    3.1000   45.4530   55.1840 C   0  0  0  0  0  0  0  0  0  0  0  0
    1.8350   44.8680   55.2840 C   0  0  0  0  0  0  0  0  0  0  0  0
    0.9050   45.0030   54.2390 C   0  0  0  0  0  0  0  0  0  0  0  0
   -0.3940   44.3910   54.3080 N   0  0  0  0  0  0  0  0  0  0  0  0
   -1.2720   44.4850   55.4390 C   0  0  0  0  0  0  0  0  0  0  0  0
   -1.9880   43.3950   55.8240 N   0  0  0  0  0  0  0  0  0  0  0  0
   -2.8510   43.4570   56.8720 C   0  0  0  0  0  0  0  0  0  0  0  0
   -3.0200   44.6550   57.5640 C   0  0  0  0  0  0  0  0  0  0  0  0
   -2.2910   45.7680   57.1500 C   0  0  0  0  0  0  0  0  0  0  0  0
   -1.4380   45.6660   56.0970 N   0  0  0  0  0  0  0  0  0  0  0  0
    1.2770   45.7000   53.0820 C   0  0  0  0  0  0  0  0  0  0  0  0
    2.5420   46.2850   52.9800 C   0  0  0  0  0  0  0  0  0  0  0  0
    5.9300   45.1960   54.8220 H   0  0  0  0  0  0  0  0  0  0  0  0
    7.7651   47.4875   55.5495 H   0  0  0  0  0  0  0  0  0  0  0  0
   10.0481   48.1524   54.8089 H   0  0  0  0  0  0  0  0  0  0  0  0
   10.9038   47.4328   52.5807 H   0  0  0  0  0  0  0  0  0  0  0  0
   10.5380   44.2766   49.9862 H   0  0  0  0  0  0  0  0  0  0  0  0
    9.3384   43.8830   51.2653 H   0  0  0  0  0  0  0  0  0  0  0  0
    7.7163   45.0834   49.4167 H   0  0  0  0  0  0  0  0  0  0  0  0
    8.9560   44.3457   48.3394 H   0  0  0  0  0  0  0  0  0  0  0  0
    7.1822   45.3512   51.8287 H   0  0  0  0  0  0  0  0  0  0  0  0
    3.8127   45.3549   56.0161 H   0  0  0  0  0  0  0  0  0  0  0  0
    1.5655   44.2986   56.1857 H   0  0  0  0  0  0  0  0  0  0  0  0
   -0.7590   43.9140   53.4530 H   0  0  0  0  0  0  0  0  0  0  0  0
   -3.4156   42.5625   57.1738 H   0  0  0  0  0  0  0  0  0  0  0  0
   -3.7122   44.7203   58.4164 H   0  0  0  0  0  0  0  0  0  0  0  0
   -2.4058   46.7279   57.6748 H   0  0  0  0  0  0  0  0  0  0  0  0
    0.5670   45.7875   52.2464 H   0  0  0  0  0  0  0  0  0  0  0  0
    2.8136   46.8429   52.0717 H   0  0  0  0  0  0  0  0  0  0  0  0
  1  2  2  0
  2  3  1  0
  3  4  1  0
  4  5  2  0
  5  6  1  0
  6  7  2  0
  7  8  1  0
  8  9  1  0
  9 10  1  0
 10 11  1  0
 11 12  1  0
  8 13  2  0
  2 14  1  0
 14 15  2  0
 15 16  1  0
 16 17  2  0
 17 18  1  0
 18 19  1  0
 19 20  2  0
 20 21  1  0
 21 22  2  0
 22 23  1  0
 23 24  2  0
 17 25  1  0
 25 26  2  0
 13  4  1  0
 26 14  1  0
 24 19  1  0
  3 27  1  0
  5 28  1  0
  6 29  1  0
  7 30  1  0
 10 31  1  0
 10 32  1  0
 11 33  1  0
 11 34  1  0
 13 35  1  0
 15 36  1  0
 16 37  1  0
 18 38  1  0
 21 39  1  0
 22 40  1  0
 23 41  1  0
 25 42  1  0
 26 43  1  0
M  END
>  <meeko>  (5) 
{"is_sidechain": [false], "free_energy": -7.404, "intermolecular_energy": -10.444, "internal_energy": -0.62}

$$$$
