MODEL 1
REMARK VINA RESULT:    -9.629      0.000      0.000
REMARK INTER + INTRA:         -13.042
REMARK INTER:                 -12.444
REMARK INTRA:                  -0.598
REMARK UNBOUND:                -0.598
REMARK SMILES c1ccc(Nc2nc(OCC3CCCCC3)c3[nH]cnc3n2)cc1
REMARK SMILES IDX 6 1 7 2 8 3 17 4 18 5 19 6 20 7 21 8 22 9 5 11 4 13 1 14
REMARK SMILES IDX 2 15 24 16 3 17 23 18 9 19 10 20 11 21 12 22 16 23 13 24
REMARK SMILES IDX 15 25 14 26
REMARK H PARENT 18 10 5 12
ROOT
ATOM      1  C   UNL     1       3.529  43.819  52.776  1.00  0.00     0.232 A 
ATOM      2  N   UNL     1       4.593  44.536  53.269  1.00  0.00    -0.175 NA
ATOM      3  C   UNL     1       4.485  45.298  54.397  1.00  0.00     0.245 A 
ATOM      4  C   UNL     1       3.251  45.335  55.025  1.00  0.00     0.148 A 
ATOM      5  N   UNL     1       2.862  45.986  56.126  1.00  0.00    -0.339 N 
ATOM      6  C   UNL     1       1.554  45.648  56.254  1.00  0.00     0.199 A 
ATOM      7  N   UNL     1       1.107  44.809  55.277  1.00  0.00    -0.217 NA
ATOM      8  C   UNL     1       2.207  44.637  54.525  1.00  0.00     0.186 A 
ATOM      9  N   UNL     1       2.315  43.878  53.408  1.00  0.00    -0.191 NA
ATOM     10  H   UNL     1       3.427  46.611  56.742  1.00  0.00     0.168 HD
ENDROOT
BRANCH   1  11
ATOM     11  N   UNL     1       3.665  43.041  51.578  1.00  0.00    -0.324 N 
ATOM     12  H   UNL     1       2.800  42.605  51.185  1.00  0.00     0.170 HD
BRANCH  11  13
ATOM     13  C   UNL     1       4.884  42.936  50.823  1.00  0.00     0.041 A 
ATOM     14  C   UNL     1       7.283  42.676  49.385  1.00  0.00     0.000 A 
ATOM     15  C   UNL     1       6.556  41.538  49.744  1.00  0.00     0.002 A 
ATOM     16  C   UNL     1       6.825  43.944  49.756  1.00  0.00     0.002 A 
ATOM     17  C   UNL     1       5.366  41.667  50.467  1.00  0.00     0.026 A 
ATOM     18  C   UNL     1       5.636  44.076  50.480  1.00  0.00     0.026 A 
ENDBRANCH  11  13
ENDBRANCH   1  11
BRANCH   3  19
ATOM     19  O   UNL     1       5.574  46.010  54.904  1.00  0.00    -0.476 OA
BRANCH  19  20
ATOM     20  C   UNL     1       6.893  45.857  54.388  1.00  0.00     0.235 C 
BRANCH  20  21
ATOM     21  C   UNL     1       7.392  47.193  53.805  1.00  0.00     0.027 C 
ATOM     22  C   UNL     1       7.432  47.165  52.262  1.00  0.00     0.007 C 
ATOM     23  C   UNL     1       8.764  47.613  54.381  1.00  0.00     0.007 C 
ATOM     24  C   UNL     1       8.593  46.317  51.721  1.00  0.00     0.000 C 
ATOM     25  C   UNL     1       9.919  46.767  53.826  1.00  0.00     0.000 C 
ATOM     26  C   UNL     1       9.934  46.786  52.294  1.00  0.00     0.000 C 
ENDBRANCH  20  21
ENDBRANCH  19  20
ENDBRANCH   3  19
TORSDOF 5
ENDMDL
MODEL 2
REMARK VINA RESULT:    -9.215      2.431      5.565
REMARK INTER + INTRA:         -12.506
REMARK INTER:                 -11.294
REMARK INTRA:                  -1.213
REMARK UNBOUND:                -0.598
REMARK SMILES c1ccc(Nc2nc(OCC3CCCCC3)c3[nH]cnc3n2)cc1
REMARK SMILES IDX 6 1 7 2 8 3 17 4 18 5 19 6 20 7 21 8 22 9 5 11 4 13 1 14
REMARK SMILES IDX 2 15 24 16 3 17 23 18 9 19 10 20 11 21 12 22 16 23 13 24
REMARK SMILES IDX 15 25 14 26
REMARK H PARENT 18 10 5 12
ROOT
ATOM      1  C   UNL     1       6.833  44.373  50.270  1.00  0.00     0.232 A 
ATOM      2  N   UNL     1       5.915  44.444  51.290  1.00  0.00    -0.175 NA
ATOM      3  C   UNL     1       4.938  43.502  51.446  1.00  0.00     0.245 A 
ATOM      4  C   UNL     1       4.896  42.471  50.521  1.00  0.00     0.148 A 
ATOM      5  N   UNL     1       4.063  41.429  50.429  1.00  0.00    -0.339 N 
ATOM      6  C   UNL     1       4.503  40.763  49.331  1.00  0.00     0.199 A 
ATOM      7  N   UNL     1       5.580  41.346  48.732  1.00  0.00    -0.217 NA
ATOM      8  C   UNL     1       5.795  42.417  49.514  1.00  0.00     0.186 A 
ATOM      9  N   UNL     1       6.766  43.350  49.361  1.00  0.00    -0.191 NA
ATOM     10  H   UNL     1       3.261  41.184  51.050  1.00  0.00     0.168 HD
ENDROOT
BRANCH   1  11
ATOM     11  N   UNL     1       7.837  45.387  50.119  1.00  0.00    -0.324 N 
ATOM     12  H   UNL     1       8.100  45.664  49.146  1.00  0.00     0.170 HD
BRANCH  11  13
ATOM     13  C   UNL     1       8.402  46.127  51.214  1.00  0.00     0.041 A 
ATOM     14  C   UNL     1       9.497  47.631  53.319  1.00  0.00     0.000 A 
ATOM     15  C   UNL     1       8.384  48.110  52.622  1.00  0.00     0.002 A 
ATOM     16  C   UNL     1      10.076  46.411  52.958  1.00  0.00     0.002 A 
ATOM     17  C   UNL     1       7.844  47.365  51.569  1.00  0.00     0.026 A 
ATOM     18  C   UNL     1       9.539  45.665  51.904  1.00  0.00     0.026 A 
ENDBRANCH  11  13
ENDBRANCH   1  11
BRANCH   3  19
ATOM     19  O   UNL     1       4.020  43.568  52.495  1.00  0.00    -0.476 OA
BRANCH  19  20
ATOM     20  C   UNL     1       3.516  44.806  52.990  1.00  0.00     0.235 C 
BRANCH  20  21
ATOM     21  C   UNL     1       3.836  44.944  54.492  1.00  0.00     0.027 C 
ATOM     22  C   UNL     1       3.571  46.376  55.004  1.00  0.00     0.007 C 
ATOM     23  C   UNL     1       5.277  44.498  54.832  1.00  0.00     0.007 C 
ATOM     24  C   UNL     1       4.635  47.376  54.525  1.00  0.00     0.000 C 
ATOM     25  C   UNL     1       6.332  45.510  54.359  1.00  0.00     0.000 C 
ATOM     26  C   UNL     1       6.043  46.910  54.910  1.00  0.00     0.000 C 
ENDBRANCH  20  21
ENDBRANCH  19  20
ENDBRANCH   3  19
TORSDOF 5
ENDMDL
MODEL 3
REMARK VINA RESULT:    -9.120      1.482      4.410
REMARK INTER + INTRA:         -12.384
REMARK INTER:                 -11.260
REMARK INTRA:                  -1.123
REMARK UNBOUND:                -0.598
REMARK SMILES c1ccc(Nc2nc(OCC3CCCCC3)c3[nH]cnc3n2)cc1
REMARK SMILES IDX 6 1 7 2 8 3 17 4 18 5 19 6 20 7 21 8 22 9 5 11 4 13 1 14
REMARK SMILES IDX 2 15 24 16 3 17 23 18 9 19 10 20 11 21 12 22 16 23 13 24
REMARK SMILES IDX 15 25 14 26
REMARK H PARENT 18 10 5 12
ROOT
ATOM      1  C   UNL     1       5.267  46.267  54.419  1.00  0.00     0.232 A 
ATOM      2  N   UNL     1       5.220  45.320  53.425  1.00  0.00    -0.175 NA
ATOM      3  C   UNL     1       4.130  44.516  53.247  1.00  0.00     0.245 A 
ATOM      4  C   UNL     1       3.069  44.681  54.122  1.00  0.00     0.148 A 
ATOM      5  N   UNL     1       1.896  44.044  54.184  1.00  0.00    -0.339 N 
ATOM      6  C   UNL     1       1.270  44.625  55.239  1.00  0.00     0.199 A 
ATOM      7  N   UNL     1       2.005  45.603  55.841  1.00  0.00    -0.217 NA
ATOM      8  C   UNL     1       3.129  45.606  55.105  1.00  0.00     0.186 A 
ATOM      9  N   UNL     1       4.210  46.405  55.280  1.00  0.00    -0.191 NA
ATOM     10  H   UNL     1       1.541  43.277  53.570  1.00  0.00     0.168 HD
ENDROOT
BRANCH   1  11
ATOM     11  N   UNL     1       6.432  47.085  54.595  1.00  0.00    -0.324 N 
ATOM     12  H   UNL     1       6.499  47.647  55.473  1.00  0.00     0.170 HD
BRANCH  11  13
ATOM     13  C   UNL     1       7.561  47.076  53.705  1.00  0.00     0.041 A 
ATOM     14  C   UNL     1       9.808  47.060  52.018  1.00  0.00     0.000 A 
ATOM     15  C   UNL     1       9.791  46.268  53.171  1.00  0.00     0.002 A 
ATOM     16  C   UNL     1       8.713  47.873  51.714  1.00  0.00     0.002 A 
ATOM     17  C   UNL     1       8.677  46.283  54.014  1.00  0.00     0.026 A 
ATOM     18  C   UNL     1       7.597  47.891  52.556  1.00  0.00     0.026 A 
ENDBRANCH  11  13
ENDBRANCH   1  11
BRANCH   3  19
ATOM     19  O   UNL     1       4.080  43.569  52.223  1.00  0.00    -0.476 OA
BRANCH  19  20
ATOM     20  C   UNL     1       5.252  43.088  51.570  1.00  0.00     0.235 C 
BRANCH  20  21
ATOM     21  C   UNL     1       5.326  43.646  50.136  1.00  0.00     0.027 C 
ATOM     22  C   UNL     1       6.045  42.671  49.179  1.00  0.00     0.007 C 
ATOM     23  C   UNL     1       5.977  45.048  50.080  1.00  0.00     0.007 C 
ATOM     24  C   UNL     1       7.563  42.635  49.409  1.00  0.00     0.000 C 
ATOM     25  C   UNL     1       7.496  45.000  50.301  1.00  0.00     0.000 C 
ATOM     26  C   UNL     1       8.169  44.039  49.315  1.00  0.00     0.000 C 
ENDBRANCH  20  21
ENDBRANCH  19  20
ENDBRANCH   3  19
TORSDOF 5
ENDMDL
MODEL 4
REMARK VINA RESULT:    -9.001      2.058      5.092
REMARK INTER + INTRA:         -12.230
REMARK INTER:                 -11.523
REMARK INTRA:                  -0.707
REMARK UNBOUND:                -0.598
REMARK SMILES c1ccc(Nc2nc(OCC3CCCCC3)c3[nH]cnc3n2)cc1
REMARK SMILES IDX 6 1 7 2 8 3 17 4 18 5 19 6 20 7 21 8 22 9 5 11 4 13 1 14
REMARK SMILES IDX 2 15 24 16 3 17 23 18 9 19 10 20 11 21 12 22 16 23 13 24
REMARK SMILES IDX 15 25 14 26
REMARK H PARENT 18 10 5 12
ROOT
ATOM      1  C   UNL     1       3.559  42.838  52.328  1.00  0.00     0.232 A 
ATOM      2  N   UNL     1       4.080  44.077  52.615  1.00  0.00    -0.175 NA
ATOM      3  C   UNL     1       5.135  44.593  51.917  1.00  0.00     0.245 A 
ATOM      4  C   UNL     1       5.677  43.810  50.912  1.00  0.00     0.148 A 
ATOM      5  N   UNL     1       6.697  44.055  50.083  1.00  0.00    -0.339 N 
ATOM      6  C   UNL     1       6.769  42.933  49.323  1.00  0.00     0.199 A 
ATOM      7  N   UNL     1       5.834  41.994  49.642  1.00  0.00    -0.217 NA
ATOM      8  C   UNL     1       5.167  42.587  50.646  1.00  0.00     0.186 A 
ATOM      9  N   UNL     1       4.118  42.077  51.336  1.00  0.00    -0.191 NA
ATOM     10  H   UNL     1       7.300  44.906  50.031  1.00  0.00     0.168 HD
ENDROOT
BRANCH   1  11
ATOM     11  N   UNL     1       2.463  42.313  53.088  1.00  0.00    -0.324 N 
ATOM     12  H   UNL     1       2.646  41.473  53.683  1.00  0.00     0.170 HD
BRANCH  11  13
ATOM     13  C   UNL     1       1.174  42.943  53.180  1.00  0.00     0.041 A 
ATOM     14  C   UNL     1      -1.343  44.167  53.426  1.00  0.00     0.000 A 
ATOM     15  C   UNL     1      -0.333  44.451  54.349  1.00  0.00     0.002 A 
ATOM     16  C   UNL     1      -1.106  43.260  52.389  1.00  0.00     0.002 A 
ATOM     17  C   UNL     1       0.917  43.836  54.232  1.00  0.00     0.026 A 
ATOM     18  C   UNL     1       0.142  42.642  52.269  1.00  0.00     0.026 A 
ENDBRANCH  11  13
ENDBRANCH   1  11
BRANCH   3  19
ATOM     19  O   UNL     1       5.647  45.861  52.200  1.00  0.00    -0.476 OA
BRANCH  19  20
ATOM     20  C   UNL     1       6.594  46.086  53.242  1.00  0.00     0.235 C 
BRANCH  20  21
ATOM     21  C   UNL     1       7.446  47.330  52.922  1.00  0.00     0.027 C 
ATOM     22  C   UNL     1       8.027  47.273  51.492  1.00  0.00     0.007 C 
ATOM     23  C   UNL     1       8.568  47.560  53.961  1.00  0.00     0.007 C 
ATOM     24  C   UNL     1       9.176  46.261  51.367  1.00  0.00     0.000 C 
ATOM     25  C   UNL     1       9.717  46.550  53.820  1.00  0.00     0.000 C 
ATOM     26  C   UNL     1      10.277  46.544  52.393  1.00  0.00     0.000 C 
ENDBRANCH  20  21
ENDBRANCH  19  20
ENDBRANCH   3  19
TORSDOF 5
ENDMDL
MODEL 5
REMARK VINA RESULT:    -8.734      1.663      5.490
REMARK INTER + INTRA:         -11.886
REMARK INTER:                 -11.290
REMARK INTRA:                  -0.596
REMARK UNBOUND:                -0.598
REMARK SMILES c1ccc(Nc2nc(OCC3CCCCC3)c3[nH]cnc3n2)cc1
REMARK SMILES IDX 6 1 7 2 8 3 17 4 18 5 19 6 20 7 21 8 22 9 5 11 4 13 1 14
REMARK SMILES IDX 2 15 24 16 3 17 23 18 9 19 10 20 11 21 12 22 16 23 13 24
REMARK SMILES IDX 15 25 14 26
REMARK H PARENT 18 10 5 12
ROOT
ATOM      1  C   UNL     1       5.221  46.705  53.514  1.00  0.00     0.232 A 
ATOM      2  N   UNL     1       5.133  45.748  52.533  1.00  0.00    -0.175 NA
ATOM      3  C   UNL     1       4.161  44.787  52.551  1.00  0.00     0.245 A 
ATOM      4  C   UNL     1       3.270  44.803  53.611  1.00  0.00     0.148 A 
ATOM      5  N   UNL     1       2.238  43.998  53.883  1.00  0.00    -0.339 N 
ATOM      6  C   UNL     1       1.741  44.494  55.044  1.00  0.00     0.199 A 
ATOM      7  N   UNL     1       2.420  45.579  55.511  1.00  0.00    -0.217 NA
ATOM      8  C   UNL     1       3.374  45.741  54.579  1.00  0.00     0.186 A 
ATOM      9  N   UNL     1       4.335  46.696  54.559  1.00  0.00    -0.191 NA
ATOM     10  H   UNL     1       1.895  43.178  53.335  1.00  0.00     0.168 HD
ENDROOT
BRANCH   1  11
ATOM     11  N   UNL     1       6.262  47.691  53.481  1.00  0.00    -0.324 N 
ATOM     12  H   UNL     1       6.009  48.671  53.741  1.00  0.00     0.170 HD
BRANCH  11  13
ATOM     13  C   UNL     1       7.647  47.389  53.239  1.00  0.00     0.041 A 
ATOM     14  C   UNL     1      10.370  46.842  52.814  1.00  0.00     0.000 A 
ATOM     15  C   UNL     1       9.883  47.003  54.114  1.00  0.00     0.002 A 
ATOM     16  C   UNL     1       9.505  46.969  51.724  1.00  0.00     0.002 A 
ATOM     17  C   UNL     1       8.530  47.283  54.326  1.00  0.00     0.026 A 
ATOM     18  C   UNL     1       8.151  47.251  51.931  1.00  0.00     0.026 A 
ENDBRANCH  11  13
ENDBRANCH   1  11
BRANCH   3  19
ATOM     19  O   UNL     1       4.064  43.828  51.541  1.00  0.00    -0.476 OA
BRANCH  19  20
ATOM     20  C   UNL     1       5.111  43.601  50.601  1.00  0.00     0.235 C 
BRANCH  20  21
ATOM     21  C   UNL     1       5.559  42.127  50.654  1.00  0.00     0.027 C 
ATOM     22  C   UNL     1       6.379  41.733  49.406  1.00  0.00     0.007 C 
ATOM     23  C   UNL     1       4.373  41.156  50.859  1.00  0.00     0.007 C 
ATOM     24  C   UNL     1       5.503  41.584  48.152  1.00  0.00     0.000 C 
ATOM     25  C   UNL     1       3.511  41.006  49.597  1.00  0.00     0.000 C 
ATOM     26  C   UNL     1       4.361  40.592  48.391  1.00  0.00     0.000 C 
ENDBRANCH  20  21
ENDBRANCH  19  20
ENDBRANCH   3  19
TORSDOF 5
ENDMDL
