ligand_27_conformer_4_docked
     RDKit          3D

 46 47  0  0  0  0  0  0  0  0999 V2000
   -2.0590   44.5250   50.5460 C   0  0  0  0  0  0  0  0  0  0  0  0
   -2.2600   43.6590   51.7790 C   0  0  0  0  0  0  0  0  0  0  0  0
   -1.2280   42.6820   51.8450 O   0  0  0  0  0  0  0  0  0  0  0  0
   -0.2860   42.6430   52.8780 C   0  0  0  0  0  0  0  0  0  0  0  0
   -0.1660   41.6110   53.5920 O   0  0  0  0  0  0  0  0  0  0  0  0
    0.5570   43.8300   53.1230 C   0  0  0  0  0  0  0  0  0  0  0  0
    1.5430   44.2690   52.2590 C   0  0  0  0  0  0  0  0  0  0  0  0
    2.0620   45.4110   52.8260 C   0  0  0  0  0  0  0  0  0  0  0  0
    3.3000   46.4290   52.1160 S   0  0  0  0  0  0  0  0  0  0  0  0
    3.1910   46.4160   50.6170 O   0  0  0  0  0  0  0  0  0  0  0  0
    3.1110   47.8350   52.6100 O   0  0  0  0  0  0  0  0  0  0  0  0
    4.8630   45.8520   52.5940 N   0  0  0  0  0  0  0  0  0  0  0  0
    5.7800   45.2700   51.6560 C   0  0  0  0  0  0  0  0  0  0  0  0
    5.4900   44.0110   51.0980 C   0  0  0  0  0  0  0  0  0  0  0  0
    6.3270   43.4500   50.1350 C   0  0  0  0  0  0  0  0  0  0  0  0
    7.4600   44.1400   49.7060 C   0  0  0  0  0  0  0  0  0  0  0  0
    8.2660   43.5970   48.7600 F   0  0  0  0  0  0  0  0  0  0  0  0
    7.7700   45.3850   50.2560 C   0  0  0  0  0  0  0  0  0  0  0  0
    6.9490   45.9580   51.2440 C   0  0  0  0  0  0  0  0  0  0  0  0
    7.3950   47.2550   51.8790 C   0  0  0  0  0  0  0  0  0  0  0  0
    8.2620   46.9570   53.4190 S   0  0  0  0  0  0  0  0  0  0  0  0
    9.7960   46.1200   53.0820 C   0  0  0  0  0  0  0  0  0  0  0  0
    8.5510   48.2530   54.1230 O   0  0  0  0  0  0  0  0  0  0  0  0
    7.4140   46.0920   54.3100 O   0  0  0  0  0  0  0  0  0  0  0  0
    1.3860   45.6380   54.0040 C   0  0  0  0  0  0  0  0  0  0  0  0
    0.4670   44.6690   54.1850 N   0  0  0  0  0  0  0  0  0  0  0  0
   -0.4490   44.5790   55.3190 C   0  0  0  0  0  0  0  0  0  0  0  0
   -1.8203   45.5533   50.8551 H   0  0  0  0  0  0  0  0  0  0  0  0
   -1.2307   44.1211   49.9453 H   0  0  0  0  0  0  0  0  0  0  0  0
   -2.9805   44.5272   49.9453 H   0  0  0  0  0  0  0  0  0  0  0  0
   -2.2262   44.2897   52.6796 H   0  0  0  0  0  0  0  0  0  0  0  0
   -3.2371   43.1572   51.7196 H   0  0  0  0  0  0  0  0  0  0  0  0
    1.8501   43.8013   51.3119 H   0  0  0  0  0  0  0  0  0  0  0  0
    5.1170   45.9180   53.6040 H   0  0  0  0  0  0  0  0  0  0  0  0
    4.5935   43.4640   51.4252 H   0  0  0  0  0  0  0  0  0  0  0  0
    6.0933   42.4615   49.7129 H   0  0  0  0  0  0  0  0  0  0  0  0
    8.6657   45.9236   49.9132 H   0  0  0  0  0  0  0  0  0  0  0  0
    8.0665   47.7821   51.1852 H   0  0  0  0  0  0  0  0  0  0  0  0
    6.5037   47.8632   52.0927 H   0  0  0  0  0  0  0  0  0  0  0  0
   10.2844   45.8535   54.0309 H   0  0  0  0  0  0  0  0  0  0  0  0
    9.5957   45.2062   52.5034 H   0  0  0  0  0  0  0  0  0  0  0  0
   10.4560   46.7830   52.5034 H   0  0  0  0  0  0  0  0  0  0  0  0
    1.5676   46.4786   54.6899 H   0  0  0  0  0  0  0  0  0  0  0  0
    0.1224   44.6351   56.2573 H   0  0  0  0  0  0  0  0  0  0  0  0
   -1.1675   45.4109   55.2769 H   0  0  0  0  0  0  0  0  0  0  0  0
   -0.9918   43.6232   55.2769 H   0  0  0  0  0  0  0  0  0  0  0  0
  1  2  1  0
  2  3  1  0
  3  4  1  0
  4  5  2  0
  4  6  1  0
  6  7  2  0
  7  8  1  0
  8  9  1  0
  9 10  2  0
  9 11  2  0
  9 12  1  0
 12 13  1  0
 13 14  2  0
 14 15  1  0
 15 16  2  0
 16 17  1  0
 16 18  1  0
 18 19  2  0
 19 20  1  0
 20 21  1  0
 21 22  1  0
 21 23  2  0
 21 24  2  0
  8 25  2  0
 25 26  1  0
 26 27  1  0
 26  6  1  0
 19 13  1  0
  1 28  1  0
  1 29  1  0
  1 30  1  0
  2 31  1  0
  2 32  1  0
  7 33  1  0
 12 34  1  0
 14 35  1  0
 15 36  1  0
 18 37  1  0
 20 38  1  0
 20 39  1  0
 22 40  1  0
 22 41  1  0
 22 42  1  0
 25 43  1  0
 27 44  1  0
 27 45  1  0
 27 46  1  0
M  END
>  <meeko>  (1) 
{"is_sidechain": [false], "free_energy": -7.865, "intermolecular_energy": -11.543, "internal_energy": -1.088}

$$$$
ligand_27_conformer_4_docked
     RDKit          3D

 46 47  0  0  0  0  0  0  0  0999 V2000
   -1.2760   44.5450   56.6730 C   0  0  0  0  0  0  0  0  0  0  0  0
   -1.6280   44.6100   55.1960 C   0  0  0  0  0  0  0  0  0  0  0  0
   -1.4860   43.3180   54.6180 O   0  0  0  0  0  0  0  0  0  0  0  0
   -0.3600   42.9360   53.8830 C   0  0  0  0  0  0  0  0  0  0  0  0
   -0.2240   41.7430   53.4990 O   0  0  0  0  0  0  0  0  0  0  0  0
    0.6690   43.9480   53.5720 C   0  0  0  0  0  0  0  0  0  0  0  0
    1.8190   44.1350   54.3160 C   0  0  0  0  0  0  0  0  0  0  0  0
    2.5230   45.1330   53.6800 C   0  0  0  0  0  0  0  0  0  0  0  0
    4.1030   45.7260   54.1550 S   0  0  0  0  0  0  0  0  0  0  0  0
    3.9800   46.6560   55.3300 O   0  0  0  0  0  0  0  0  0  0  0  0
    4.9620   44.5560   54.5420 O   0  0  0  0  0  0  0  0  0  0  0  0
    4.8280   46.5620   52.8210 N   0  0  0  0  0  0  0  0  0  0  0  0
    5.7510   45.9180   51.9290 C   0  0  0  0  0  0  0  0  0  0  0  0
    5.3800   44.7140   51.3040 C   0  0  0  0  0  0  0  0  0  0  0  0
    6.2280   44.1000   50.3830 C   0  0  0  0  0  0  0  0  0  0  0  0
    7.4540   44.6830   50.0650 C   0  0  0  0  0  0  0  0  0  0  0  0
    8.2710   44.0890   49.1600 F   0  0  0  0  0  0  0  0  0  0  0  0
    7.8440   45.8710   50.6840 C   0  0  0  0  0  0  0  0  0  0  0  0
    7.0110   46.4950   51.6310 C   0  0  0  0  0  0  0  0  0  0  0  0
    7.5350   47.7190   52.3470 C   0  0  0  0  0  0  0  0  0  0  0  0
    8.4150   47.2670   53.8410 S   0  0  0  0  0  0  0  0  0  0  0  0
    9.8850   46.3620   53.4110 C   0  0  0  0  0  0  0  0  0  0  0  0
    8.8010   48.4940   54.6190 O   0  0  0  0  0  0  0  0  0  0  0  0
    7.5350   46.4000   54.6960 O   0  0  0  0  0  0  0  0  0  0  0  0
    1.7950   45.5230   52.5790 C   0  0  0  0  0  0  0  0  0  0  0  0
    0.6600   44.7980   52.5150 N   0  0  0  0  0  0  0  0  0  0  0  0
   -0.3600   44.9210   51.4770 C   0  0  0  0  0  0  0  0  0  0  0  0
   -2.1822   44.7123   57.2736 H   0  0  0  0  0  0  0  0  0  0  0  0
   -0.8586   43.5546   56.9072 H   0  0  0  0  0  0  0  0  0  0  0  0
   -0.5324   45.3210   56.9072 H   0  0  0  0  0  0  0  0  0  0  0  0
   -2.6676   44.9509   55.0814 H   0  0  0  0  0  0  0  0  0  0  0  0
   -0.9532   45.3151   54.6887 H   0  0  0  0  0  0  0  0  0  0  0  0
    2.1119   43.5966   55.2294 H   0  0  0  0  0  0  0  0  0  0  0  0
    4.5900   47.5700   52.6920 H   0  0  0  0  0  0  0  0  0  0  0  0
    4.4110   44.2520   51.5441 H   0  0  0  0  0  0  0  0  0  0  0  0
    5.9294   43.1545   49.9067 H   0  0  0  0  0  0  0  0  0  0  0  0
    8.8131   46.3247   50.4290 H   0  0  0  0  0  0  0  0  0  0  0  0
    8.2190   48.2612   51.6776 H   0  0  0  0  0  0  0  0  0  0  0  0
    6.6803   48.3536   52.6241 H   0  0  0  0  0  0  0  0  0  0  0  0
   10.4014   46.0441   54.3287 H   0  0  0  0  0  0  0  0  0  0  0  0
    9.6104   45.4764   52.8192 H   0  0  0  0  0  0  0  0  0  0  0  0
   10.5521   47.0060   52.8192 H   0  0  0  0  0  0  0  0  0  0  0  0
    2.0925   46.3037   51.8635 H   0  0  0  0  0  0  0  0  0  0  0  0
   -1.3479   45.0401   51.9460 H   0  0  0  0  0  0  0  0  0  0  0  0
   -0.1427   45.7994   50.8516 H   0  0  0  0  0  0  0  0  0  0  0  0
   -0.3577   44.0161   50.8516 H   0  0  0  0  0  0  0  0  0  0  0  0
  1  2  1  0
  2  3  1  0
  3  4  1  0
  4  5  2  0
  4  6  1  0
  6  7  2  0
  7  8  1  0
  8  9  1  0
  9 10  2  0
  9 11  2  0
  9 12  1  0
 12 13  1  0
 13 14  2  0
 14 15  1  0
 15 16  2  0
 16 17  1  0
 16 18  1  0
 18 19  2  0
 19 20  1  0
 20 21  1  0
 21 22  1  0
 21 23  2  0
 21 24  2  0
  8 25  2  0
 25 26  1  0
 26 27  1  0
 26  6  1  0
 19 13  1  0
  1 28  1  0
  1 29  1  0
  1 30  1  0
  2 31  1  0
  2 32  1  0
  7 33  1  0
 12 34  1  0
 14 35  1  0
 15 36  1  0
 18 37  1  0
 20 38  1  0
 20 39  1  0
 22 40  1  0
 22 41  1  0
 22 42  1  0
 25 43  1  0
 27 44  1  0
 27 45  1  0
 27 46  1  0
M  END
>  <meeko>  (2) 
{"is_sidechain": [false], "free_energy": -7.783, "intermolecular_energy": -11.515, "internal_energy": -0.996}

$$$$
ligand_27_conformer_4_docked
     RDKit          3D

 46 47  0  0  0  0  0  0  0  0999 V2000
    1.9970   42.6830   50.8360 C   0  0  0  0  0  0  0  0  0  0  0  0
    0.6520   42.8250   51.5290 C   0  0  0  0  0  0  0  0  0  0  0  0
    0.0780   44.0830   51.1960 O   0  0  0  0  0  0  0  0  0  0  0  0
   -0.0340   45.1320   52.1140 C   0  0  0  0  0  0  0  0  0  0  0  0
   -1.0710   45.8490   52.1390 O   0  0  0  0  0  0  0  0  0  0  0  0
    1.0810   45.3890   53.0470 C   0  0  0  0  0  0  0  0  0  0  0  0
    2.3100   45.8910   52.6610 C   0  0  0  0  0  0  0  0  0  0  0  0
    3.0460   46.0200   53.8180 C   0  0  0  0  0  0  0  0  0  0  0  0
    4.6650   46.6820   53.9270 S   0  0  0  0  0  0  0  0  0  0  0  0
    4.6650   47.9230   54.7750 O   0  0  0  0  0  0  0  0  0  0  0  0
    5.5650   45.6570   54.5560 O   0  0  0  0  0  0  0  0  0  0  0  0
    5.2400   47.0610   52.3360 N   0  0  0  0  0  0  0  0  0  0  0  0
    6.0150   46.1310   51.5650 C   0  0  0  0  0  0  0  0  0  0  0  0
    5.3930   44.9870   51.0350 C   0  0  0  0  0  0  0  0  0  0  0  0
    6.1040   44.1000   50.2270 C   0  0  0  0  0  0  0  0  0  0  0  0
    7.4430   44.3460   49.9290 C   0  0  0  0  0  0  0  0  0  0  0  0
    8.1280   43.4870   49.1340 F   0  0  0  0  0  0  0  0  0  0  0  0
    8.0810   45.4700   50.4550 C   0  0  0  0  0  0  0  0  0  0  0  0
    7.3860   46.3660   51.2890 C   0  0  0  0  0  0  0  0  0  0  0  0
    8.1590   47.5030   51.9170 C   0  0  0  0  0  0  0  0  0  0  0  0
    9.2050   46.9170   53.2480 S   0  0  0  0  0  0  0  0  0  0  0  0
    9.2200   48.1180   54.5610 C   0  0  0  0  0  0  0  0  0  0  0  0
    8.6970   45.6080   53.7840 O   0  0  0  0  0  0  0  0  0  0  0  0
   10.6060   46.7280   52.7370 O   0  0  0  0  0  0  0  0  0  0  0  0
    2.2560   45.6020   54.8650 C   0  0  0  0  0  0  0  0  0  0  0  0
    1.0540   45.2150   54.3920 N   0  0  0  0  0  0  0  0  0  0  0  0
   -0.0520   44.7190   55.2070 C   0  0  0  0  0  0  0  0  0  0  0  0
    2.7918   42.5991   51.5918 H   0  0  0  0  0  0  0  0  0  0  0  0
    1.9921   41.7804   50.2073 H   0  0  0  0  0  0  0  0  0  0  0  0
    2.1807   43.5667   50.2073 H   0  0  0  0  0  0  0  0  0  0  0  0
   -0.0178   42.0173   51.1988 H   0  0  0  0  0  0  0  0  0  0  0  0
    0.7921   42.7625   52.6182 H   0  0  0  0  0  0  0  0  0  0  0  0
    2.6338   46.1370   51.6389 H   0  0  0  0  0  0  0  0  0  0  0  0
    5.0230   48.0080   51.9540 H   0  0  0  0  0  0  0  0  0  0  0  0
    4.3345   44.7894   51.2599 H   0  0  0  0  0  0  0  0  0  0  0  0
    5.6072   43.2050   49.8244 H   0  0  0  0  0  0  0  0  0  0  0  0
    9.1380   45.6578   50.2154 H   0  0  0  0  0  0  0  0  0  0  0  0
    8.7875   47.9772   51.1488 H   0  0  0  0  0  0  0  0  0  0  0  0
    7.4408   48.2262   52.3307 H   0  0  0  0  0  0  0  0  0  0  0  0
    9.2135   47.6003   55.5315 H   0  0  0  0  0  0  0  0  0  0  0  0
   10.1259   48.7368   54.4815 H   0  0  0  0  0  0  0  0  0  0  0  0
    8.3298   48.7593   54.4815 H   0  0  0  0  0  0  0  0  0  0  0  0
    2.5582   45.5862   55.9226 H   0  0  0  0  0  0  0  0  0  0  0  0
    0.1984   44.8313   56.2722 H   0  0  0  0  0  0  0  0  0  0  0  0
   -0.9612   45.2956   54.9813 H   0  0  0  0  0  0  0  0  0  0  0  0
   -0.2261   43.6566   54.9813 H   0  0  0  0  0  0  0  0  0  0  0  0
  1  2  1  0
  2  3  1  0
  3  4  1  0
  4  5  2  0
  4  6  1  0
  6  7  2  0
  7  8  1  0
  8  9  1  0
  9 10  2  0
  9 11  2  0
  9 12  1  0
 12 13  1  0
 13 14  2  0
 14 15  1  0
 15 16  2  0
 16 17  1  0
 16 18  1  0
 18 19  2  0
 19 20  1  0
 20 21  1  0
 21 22  1  0
 21 23  2  0
 21 24  2  0
  8 25  2  0
 25 26  1  0
 26 27  1  0
 26  6  1  0
 19 13  1  0
  1 28  1  0
  1 29  1  0
  1 30  1  0
  2 31  1  0
  2 32  1  0
  7 33  1  0
 12 34  1  0
 14 35  1  0
 15 36  1  0
 18 37  1  0
 20 38  1  0
 20 39  1  0
 22 40  1  0
 22 41  1  0
 22 42  1  0
 25 43  1  0
 27 44  1  0
 27 45  1  0
 27 46  1  0
M  END
>  <meeko>  (3) 
{"is_sidechain": [false], "free_energy": -7.628, "intermolecular_energy": -11.003, "internal_energy": -1.281}

$$$$
ligand_27_conformer_4_docked
     RDKit          3D

 46 47  0  0  0  0  0  0  0  0999 V2000
   10.2460   47.4260   55.1630 C   0  0  0  0  0  0  0  0  0  0  0  0
    9.9360   46.9130   53.7660 C   0  0  0  0  0  0  0  0  0  0  0  0
    8.5570   46.5720   53.6820 O   0  0  0  0  0  0  0  0  0  0  0  0
    7.6380   47.3110   52.9310 C   0  0  0  0  0  0  0  0  0  0  0  0
    7.8070   48.5480   52.7550 O   0  0  0  0  0  0  0  0  0  0  0  0
    6.4660   46.6230   52.3560 C   0  0  0  0  0  0  0  0  0  0  0  0
    5.1830   46.7250   52.8640 C   0  0  0  0  0  0  0  0  0  0  0  0
    4.3850   45.9750   52.0300 C   0  0  0  0  0  0  0  0  0  0  0  0
    2.6450   45.8100   52.1630 S   0  0  0  0  0  0  0  0  0  0  0  0
    2.0300   47.1060   52.6120 O   0  0  0  0  0  0  0  0  0  0  0  0
    2.0900   45.4450   50.8150 O   0  0  0  0  0  0  0  0  0  0  0  0
    2.2710   44.5590   53.3020 N   0  0  0  0  0  0  0  0  0  0  0  0
    1.3420   44.7610   54.3780 C   0  0  0  0  0  0  0  0  0  0  0  0
    1.8310   44.9910   55.6760 C   0  0  0  0  0  0  0  0  0  0  0  0
    0.9560   45.2570   56.7290 C   0  0  0  0  0  0  0  0  0  0  0  0
   -0.4190   45.3050   56.5000 C   0  0  0  0  0  0  0  0  0  0  0  0
   -1.2660   45.5750   57.5240 F   0  0  0  0  0  0  0  0  0  0  0  0
   -0.9220   45.0670   55.2210 C   0  0  0  0  0  0  0  0  0  0  0  0
   -0.0570   44.7780   54.1500 C   0  0  0  0  0  0  0  0  0  0  0  0
   -0.6680   44.4210   52.8140 C   0  0  0  0  0  0  0  0  0  0  0  0
   -0.5160   42.6670   52.4810 S   0  0  0  0  0  0  0  0  0  0  0  0
   -1.9080   42.1260   51.5130 C   0  0  0  0  0  0  0  0  0  0  0  0
    0.7510   42.3800   51.7240 O   0  0  0  0  0  0  0  0  0  0  0  0
   -0.4950   41.9120   53.7800 O   0  0  0  0  0  0  0  0  0  0  0  0
    5.1890   45.4430   51.0470 C   0  0  0  0  0  0  0  0  0  0  0  0
    6.4620   45.8390   51.2490 N   0  0  0  0  0  0  0  0  0  0  0  0
    7.5980   45.4840   50.4030 C   0  0  0  0  0  0  0  0  0  0  0  0
    9.8279   46.7340   55.9089 H   0  0  0  0  0  0  0  0  0  0  0  0
   11.3359   47.4931   55.2955 H   0  0  0  0  0  0  0  0  0  0  0  0
    9.7985   48.4221   55.2955 H   0  0  0  0  0  0  0  0  0  0  0  0
   10.1659   47.6959   53.0283 H   0  0  0  0  0  0  0  0  0  0  0  0
   10.5476   46.0227   53.5578 H   0  0  0  0  0  0  0  0  0  0  0  0
    4.8655   47.2900   53.7528 H   0  0  0  0  0  0  0  0  0  0  0  0
    2.7630   43.6440   53.1980 H   0  0  0  0  0  0  0  0  0  0  0  0
    2.9146   44.9608   55.8629 H   0  0  0  0  0  0  0  0  0  0  0  0
    1.3507   45.4291   57.7412 H   0  0  0  0  0  0  0  0  0  0  0  0
   -2.0076   45.1057   55.0478 H   0  0  0  0  0  0  0  0  0  0  0  0
   -1.7336   44.6938   52.8223 H   0  0  0  0  0  0  0  0  0  0  0  0
   -0.1329   44.9729   52.0272 H   0  0  0  0  0  0  0  0  0  0  0  0
   -2.7206   41.8102   52.1838 H   0  0  0  0  0  0  0  0  0  0  0  0
   -2.2573   42.9539   50.8784 H   0  0  0  0  0  0  0  0  0  0  0  0
   -1.6065   41.2796   50.8784 H   0  0  0  0  0  0  0  0  0  0  0  0
    4.8465   44.7963   50.2257 H   0  0  0  0  0  0  0  0  0  0  0  0
    8.4568   45.2156   51.0359 H   0  0  0  0  0  0  0  0  0  0  0  0
    7.3286   44.6272   49.7679 H   0  0  0  0  0  0  0  0  0  0  0  0
    7.8644   46.3417   49.7679 H   0  0  0  0  0  0  0  0  0  0  0  0
  1  2  1  0
  2  3  1  0
  3  4  1  0
  4  5  2  0
  4  6  1  0
  6  7  2  0
  7  8  1  0
  8  9  1  0
  9 10  2  0
  9 11  2  0
  9 12  1  0
 12 13  1  0
 13 14  2  0
 14 15  1  0
 15 16  2  0
 16 17  1  0
 16 18  1  0
 18 19  2  0
 19 20  1  0
 20 21  1  0
 21 22  1  0
 21 23  2  0
 21 24  2  0
  8 25  2  0
 25 26  1  0
 26 27  1  0
 26  6  1  0
 19 13  1  0
  1 28  1  0
  1 29  1  0
  1 30  1  0
  2 31  1  0
  2 32  1  0
  7 33  1  0
 12 34  1  0
 14 35  1  0
 15 36  1  0
 18 37  1  0
 20 38  1  0
 20 39  1  0
 22 40  1  0
 22 41  1  0
 22 42  1  0
 25 43  1  0
 27 44  1  0
 27 45  1  0
 27 46  1  0
M  END
>  <meeko>  (4) 
{"is_sidechain": [false], "free_energy": -7.617, "intermolecular_energy": -11.133, "internal_energy": -1.136}

$$$$
ligand_27_conformer_4_docked
     RDKit          3D

 46 47  0  0  0  0  0  0  0  0999 V2000
   -2.4220   47.1140   58.2420 C   0  0  0  0  0  0  0  0  0  0  0  0
   -0.9230   47.2060   58.0070 C   0  0  0  0  0  0  0  0  0  0  0  0
   -0.6130   46.6930   56.7170 O   0  0  0  0  0  0  0  0  0  0  0  0
    0.1300   45.5240   56.5250 C   0  0  0  0  0  0  0  0  0  0  0  0
    0.7150   44.9740   57.4970 O   0  0  0  0  0  0  0  0  0  0  0  0
    0.2260   44.9510   55.1680 C   0  0  0  0  0  0  0  0  0  0  0  0
    1.3440   45.0570   54.3610 C   0  0  0  0  0  0  0  0  0  0  0  0
    1.0460   44.3640   53.2090 C   0  0  0  0  0  0  0  0  0  0  0  0
    2.1390   44.1090   51.8630 S   0  0  0  0  0  0  0  0  0  0  0  0
    1.7640   42.8600   51.1150 O   0  0  0  0  0  0  0  0  0  0  0  0
    2.0430   45.2850   50.9330 O   0  0  0  0  0  0  0  0  0  0  0  0
    3.7610   43.9700   52.4570 N   0  0  0  0  0  0  0  0  0  0  0  0
    4.8940   43.9240   51.5760 C   0  0  0  0  0  0  0  0  0  0  0  0
    5.1710   42.7390   50.8710 C   0  0  0  0  0  0  0  0  0  0  0  0
    6.2240   42.6850   49.9580 C   0  0  0  0  0  0  0  0  0  0  0  0
    7.0100   43.8130   49.7290 C   0  0  0  0  0  0  0  0  0  0  0  0
    8.0260   43.7600   48.8320 F   0  0  0  0  0  0  0  0  0  0  0  0
    6.7570   44.9940   50.4280 C   0  0  0  0  0  0  0  0  0  0  0  0
    5.7120   45.0630   51.3680 C   0  0  0  0  0  0  0  0  0  0  0  0
    5.5570   46.3340   52.1720 C   0  0  0  0  0  0  0  0  0  0  0  0
    6.4470   46.2310   53.7230 S   0  0  0  0  0  0  0  0  0  0  0  0
    8.1940   46.3660   53.4130 C   0  0  0  0  0  0  0  0  0  0  0  0
    6.0240   47.3360   54.6510 O   0  0  0  0  0  0  0  0  0  0  0  0
    6.1640   44.9060   54.3750 O   0  0  0  0  0  0  0  0  0  0  0  0
   -0.2280   43.8590   53.3410 C   0  0  0  0  0  0  0  0  0  0  0  0
   -0.7290   44.2210   54.5400 N   0  0  0  0  0  0  0  0  0  0  0  0
   -2.0530   43.8610   55.0410 C   0  0  0  0  0  0  0  0  0  0  0  0
   -2.6235   47.1016   59.3233 H   0  0  0  0  0  0  0  0  0  0  0  0
   -2.9186   47.9834   57.7864 H   0  0  0  0  0  0  0  0  0  0  0  0
   -2.8086   46.1904   57.7864 H   0  0  0  0  0  0  0  0  0  0  0  0
   -0.6059   48.2575   58.0694 H   0  0  0  0  0  0  0  0  0  0  0  0
   -0.3951   46.6178   58.7721 H   0  0  0  0  0  0  0  0  0  0  0  0
    2.2800   45.5866   54.5921 H   0  0  0  0  0  0  0  0  0  0  0  0
    3.8960   43.8970   53.4890 H   0  0  0  0  0  0  0  0  0  0  0  0
    4.5513   41.8463   51.0413 H   0  0  0  0  0  0  0  0  0  0  0  0
    6.4346   41.7503   49.4176 H   0  0  0  0  0  0  0  0  0  0  0  0
    7.3811   45.8805   50.2422 H   0  0  0  0  0  0  0  0  0  0  0  0
    5.9508   47.1786   51.5876 H   0  0  0  0  0  0  0  0  0  0  0  0
    4.4890   46.4793   52.3919 H   0  0  0  0  0  0  0  0  0  0  0  0
    8.7341   46.4077   54.3704 H   0  0  0  0  0  0  0  0  0  0  0  0
    8.5331   45.4914   52.8385 H   0  0  0  0  0  0  0  0  0  0  0  0
    8.3947   47.2823   52.8385 H   0  0  0  0  0  0  0  0  0  0  0  0
   -0.7546   43.2552   52.5872 H   0  0  0  0  0  0  0  0  0  0  0  0
   -2.0421   43.8640   56.1409 H   0  0  0  0  0  0  0  0  0  0  0  0
   -2.7926   44.5906   54.6797 H   0  0  0  0  0  0  0  0  0  0  0  0
   -2.3213   42.8573   54.6797 H   0  0  0  0  0  0  0  0  0  0  0  0
  1  2  1  0
  2  3  1  0
  3  4  1  0
  4  5  2  0
  4  6  1  0
  6  7  2  0
  7  8  1  0
  8  9  1  0
  9 10  2  0
  9 11  2  0
  9 12  1  0
 12 13  1  0
 13 14  2  0
 14 15  1  0
 15 16  2  0
 16 17  1  0
 16 18  1  0
 18 19  2  0
 19 20  1  0
 20 21  1  0
 21 22  1  0
 21 23  2  0
 21 24  2  0
  8 25  2  0
 25 26  1  0
 26 27  1  0
 26  6  1  0
 19 13  1  0
  1 28  1  0
  1 29  1  0
  1 30  1  0
  2 31  1  0
  2 32  1  0
  7 33  1  0
 12 34  1  0
 14 35  1  0
 15 36  1  0
 18 37  1  0
 20 38  1  0
 20 39  1  0
 22 40  1  0
 22 41  1  0
 22 42  1  0
 25 43  1  0
 27 44  1  0
 27 45  1  0
 27 46  1  0
M  END
>  <meeko>  (5) 
{"is_sidechain": [false], "free_energy": -7.24, "intermolecular_energy": -10.757, "internal_energy": -0.957}

$$$$
