MODEL 1
REMARK VINA RESULT:    -9.152      0.000      0.000
REMARK INTER + INTRA:         -10.181
REMARK INTER:                  -9.687
REMARK INTRA:                  -0.495
REMARK UNBOUND:                -0.495
REMARK SMILES CN1CCC2(CCN(C(=O)c3ccc4cccnn34)CC2)C1=O
REMARK SMILES IDX 1 1 2 2 3 3 4 4 5 5 6 6 7 7 8 8 20 9 21 10 9 11 10 12 22 13
REMARK SMILES IDX 23 14 11 15 12 16 19 17 13 18 18 19 14 20 17 21 15 22 16 23
REMARK H PARENT
ROOT
ATOM      1  C   UNL     1       1.746  44.043  51.672  1.00  0.00     0.146 C 
ATOM      2  N   UNL     1       2.439  44.481  52.878  1.00  0.00    -0.345 N 
ATOM      3  C   UNL     1       1.852  44.520  54.202  1.00  0.00     0.120 C 
ATOM      4  C   UNL     1       2.993  44.944  55.143  1.00  0.00     0.038 C 
ATOM      5  C   UNL     1       4.102  45.586  54.257  1.00  0.00     0.054 C 
ATOM      6  C   UNL     1       3.991  47.129  54.301  1.00  0.00     0.038 C 
ATOM      7  C   UNL     1       5.043  47.804  53.406  1.00  0.00     0.121 C 
ATOM      8  N   UNL     1       6.350  47.133  53.484  1.00  0.00    -0.337 N 
ATOM      9  C   UNL     1       6.612  46.193  54.584  1.00  0.00     0.121 C 
ATOM     10  C   UNL     1       5.525  45.105  54.679  1.00  0.00     0.038 C 
ATOM     11  C   UNL     1       7.445  47.676  52.720  1.00  0.00     0.272 C 
ATOM     12  O   UNL     1       7.474  48.910  52.467  1.00  0.00    -0.267 OA
ATOM     13  C   UNL     1       3.719  45.082  52.901  1.00  0.00     0.228 C 
ATOM     14  O   UNL     1       4.434  45.194  51.869  1.00  0.00    -0.274 OA
ENDROOT
BRANCH  11  15
ATOM     15  C   UNL     1       8.549  46.827  52.226  1.00  0.00     0.130 A 
ATOM     16  C   UNL     1       9.873  46.903  52.646  1.00  0.00     0.036 A 
ATOM     17  N   UNL     1       8.456  45.897  51.259  1.00  0.00    -0.228 N 
ATOM     18  C   UNL     1      10.592  45.964  51.911  1.00  0.00     0.031 A 
ATOM     19  N   UNL     1       7.391  45.555  50.537  1.00  0.00    -0.176 NA
ATOM     20  C   UNL     1       9.674  45.371  51.067  1.00  0.00     0.066 A 
ATOM     21  C   UNL     1       7.513  44.601  49.571  1.00  0.00     0.134 A 
ATOM     22  C   UNL     1       9.876  44.395  50.098  1.00  0.00     0.030 A 
ATOM     23  C   UNL     1       8.765  44.001  49.340  1.00  0.00     0.024 A 
ENDBRANCH  11  15
TORSDOF 1
ENDMDL
MODEL 2
REMARK VINA RESULT:    -8.693      1.819      3.184
REMARK INTER + INTRA:          -9.696
REMARK INTER:                  -9.391
REMARK INTRA:                  -0.305
REMARK UNBOUND:                -0.495
REMARK SMILES CN1CCC2(CCN(C(=O)c3ccc4cccnn34)CC2)C1=O
REMARK SMILES IDX 1 1 2 2 3 3 4 4 5 5 6 6 7 7 8 8 20 9 21 10 9 11 10 12 22 13
REMARK SMILES IDX 23 14 11 15 12 16 19 17 13 18 18 19 14 20 17 21 15 22 16 23
REMARK H PARENT
ROOT
ATOM      1  C   UNL     1      -0.393  43.610  50.173  1.00  0.00     0.146 C 
ATOM      2  N   UNL     1       0.298  43.446  51.447  1.00  0.00    -0.345 N 
ATOM      3  C   UNL     1      -0.231  42.726  52.588  1.00  0.00     0.120 C 
ATOM      4  C   UNL     1       0.894  42.740  53.637  1.00  0.00     0.038 C 
ATOM      5  C   UNL     1       1.882  43.876  53.234  1.00  0.00     0.054 C 
ATOM      6  C   UNL     1       1.596  45.149  54.065  1.00  0.00     0.038 C 
ATOM      7  C   UNL     1       2.522  46.311  53.669  1.00  0.00     0.121 C 
ATOM      8  N   UNL     1       3.900  45.860  53.419  1.00  0.00    -0.337 N 
ATOM      9  C   UNL     1       4.317  44.529  53.881  1.00  0.00     0.121 C 
ATOM     10  C   UNL     1       3.368  43.424  53.377  1.00  0.00     0.038 C 
ATOM     11  C   UNL     1       4.890  46.847  53.068  1.00  0.00     0.272 C 
ATOM     12  O   UNL     1       4.766  48.029  53.488  1.00  0.00    -0.267 OA
ATOM     13  C   UNL     1       1.499  44.099  51.804  1.00  0.00     0.228 C 
ATOM     14  O   UNL     1       2.150  44.812  50.994  1.00  0.00    -0.274 OA
ENDROOT
BRANCH  11  15
ATOM     15  C   UNL     1       6.061  46.515  52.231  1.00  0.00     0.130 A 
ATOM     16  C   UNL     1       6.015  45.862  51.003  1.00  0.00     0.036 A 
ATOM     17  N   UNL     1       7.348  46.742  52.550  1.00  0.00    -0.228 N 
ATOM     18  C   UNL     1       7.328  45.712  50.567  1.00  0.00     0.031 A 
ATOM     19  N   UNL     1       7.845  47.276  53.664  1.00  0.00    -0.176 NA
ATOM     20  C   UNL     1       8.114  46.267  51.557  1.00  0.00     0.066 A 
ATOM     21  C   UNL     1       9.195  47.389  53.809  1.00  0.00     0.134 A 
ATOM     22  C   UNL     1       9.500  46.345  51.637  1.00  0.00     0.030 A 
ATOM     23  C   UNL     1      10.047  46.926  52.789  1.00  0.00     0.024 A 
ENDBRANCH  11  15
TORSDOF 1
ENDMDL
MODEL 3
REMARK VINA RESULT:    -8.352      2.782      4.985
REMARK INTER + INTRA:          -9.334
REMARK INTER:                  -8.821
REMARK INTRA:                  -0.513
REMARK UNBOUND:                -0.495
REMARK SMILES CN1CCC2(CCN(C(=O)c3ccc4cccnn34)CC2)C1=O
REMARK SMILES IDX 1 1 2 2 3 3 4 4 5 5 6 6 7 7 8 8 20 9 21 10 9 11 10 12 22 13
REMARK SMILES IDX 23 14 11 15 12 16 19 17 13 18 18 19 14 20 17 21 15 22 16 23
REMARK H PARENT
ROOT
ATOM      1  C   UNL     1      -0.017  45.047  56.913  1.00  0.00     0.146 C 
ATOM      2  N   UNL     1      -0.220  44.947  55.473  1.00  0.00    -0.345 N 
ATOM      3  C   UNL     1      -1.512  44.933  54.818  1.00  0.00     0.120 C 
ATOM      4  C   UNL     1      -1.207  44.924  53.311  1.00  0.00     0.038 C 
ATOM      5  C   UNL     1       0.274  44.466  53.146  1.00  0.00     0.054 C 
ATOM      6  C   UNL     1       0.329  42.962  52.790  1.00  0.00     0.038 C 
ATOM      7  C   UNL     1       1.775  42.457  52.659  1.00  0.00     0.121 C 
ATOM      8  N   UNL     1       2.643  43.432  51.980  1.00  0.00    -0.337 N 
ATOM      9  C   UNL     1       2.032  44.538  51.228  1.00  0.00     0.121 C 
ATOM     10  C   UNL     1       1.029  45.330  52.089  1.00  0.00     0.038 C 
ATOM     11  C   UNL     1       4.023  43.082  51.757  1.00  0.00     0.272 C 
ATOM     12  O   UNL     1       4.342  41.871  51.619  1.00  0.00    -0.267 OA
ATOM     13  C   UNL     1       0.801  44.686  54.530  1.00  0.00     0.228 C 
ATOM     14  O   UNL     1       2.019  44.624  54.848  1.00  0.00    -0.274 OA
ENDROOT
BRANCH  11  15
ATOM     15  C   UNL     1       5.085  44.105  51.678  1.00  0.00     0.130 A 
ATOM     16  C   UNL     1       5.797  44.440  50.530  1.00  0.00     0.036 A 
ATOM     17  N   UNL     1       5.564  44.826  52.707  1.00  0.00    -0.228 N 
ATOM     18  C   UNL     1       6.724  45.415  50.890  1.00  0.00     0.031 A 
ATOM     19  N   UNL     1       5.219  44.768  53.992  1.00  0.00    -0.176 NA
ATOM     20  C   UNL     1       6.544  45.616  52.244  1.00  0.00     0.066 A 
ATOM     21  C   UNL     1       5.855  45.568  54.894  1.00  0.00     0.134 A 
ATOM     22  C   UNL     1       7.239  46.457  53.106  1.00  0.00     0.030 A 
ATOM     23  C   UNL     1       6.878  46.432  54.461  1.00  0.00     0.024 A 
ENDBRANCH  11  15
TORSDOF 1
ENDMDL
MODEL 4
REMARK VINA RESULT:    -7.541      2.451      7.478
REMARK INTER + INTRA:          -8.477
REMARK INTER:                  -8.421
REMARK INTRA:                  -0.056
REMARK UNBOUND:                -0.495
REMARK SMILES CN1CCC2(CCN(C(=O)c3ccc4cccnn34)CC2)C1=O
REMARK SMILES IDX 1 1 2 2 3 3 4 4 5 5 6 6 7 7 8 8 20 9 21 10 9 11 10 12 22 13
REMARK SMILES IDX 23 14 11 15 12 16 19 17 13 18 18 19 14 20 17 21 15 22 16 23
REMARK H PARENT
ROOT
ATOM      1  C   UNL     1       7.972  48.332  52.389  1.00  0.00     0.146 C 
ATOM      2  N   UNL     1       7.411  47.042  52.003  1.00  0.00    -0.345 N 
ATOM      3  C   UNL     1       8.042  46.104  51.097  1.00  0.00     0.120 C 
ATOM      4  C   UNL     1       7.130  44.865  51.092  1.00  0.00     0.038 C 
ATOM      5  C   UNL     1       5.746  45.313  51.651  1.00  0.00     0.054 C 
ATOM      6  C   UNL     1       4.764  45.582  50.487  1.00  0.00     0.038 C 
ATOM      7  C   UNL     1       3.396  46.068  50.992  1.00  0.00     0.121 C 
ATOM      8  N   UNL     1       2.964  45.347  52.200  1.00  0.00    -0.337 N 
ATOM      9  C   UNL     1       3.638  44.094  52.570  1.00  0.00     0.121 C 
ATOM     10  C   UNL     1       5.167  44.269  52.656  1.00  0.00     0.038 C 
ATOM     11  C   UNL     1       1.682  45.674  52.772  1.00  0.00     0.272 C 
ATOM     12  O   UNL     1       0.760  46.100  52.025  1.00  0.00    -0.267 OA
ATOM     13  C   UNL     1       6.108  46.599  52.326  1.00  0.00     0.228 C 
ATOM     14  O   UNL     1       5.339  47.249  53.084  1.00  0.00    -0.274 OA
ENDROOT
BRANCH  11  15
ATOM     15  C   UNL     1       1.408  45.519  54.215  1.00  0.00     0.130 A 
ATOM     16  C   UNL     1       2.329  45.725  55.237  1.00  0.00     0.036 A 
ATOM     17  N   UNL     1       0.249  45.104  54.757  1.00  0.00    -0.228 N 
ATOM     18  C   UNL     1       1.684  45.438  56.437  1.00  0.00     0.031 A 
ATOM     19  N   UNL     1      -0.869  44.728  54.138  1.00  0.00    -0.176 NA
ATOM     20  C   UNL     1       0.404  45.056  56.088  1.00  0.00     0.066 A 
ATOM     21  C   UNL     1      -1.933  44.303  54.875  1.00  0.00     0.134 A 
ATOM     22  C   UNL     1      -0.638  44.630  56.904  1.00  0.00     0.030 A 
ATOM     23  C   UNL     1      -1.833  44.252  56.278  1.00  0.00     0.024 A 
ENDBRANCH  11  15
TORSDOF 1
ENDMDL
MODEL 5
REMARK VINA RESULT:    -7.384      2.680      6.709
REMARK INTER + INTRA:          -8.310
REMARK INTER:                  -8.163
REMARK INTRA:                  -0.148
REMARK UNBOUND:                -0.495
REMARK SMILES CN1CCC2(CCN(C(=O)c3ccc4cccnn34)CC2)C1=O
REMARK SMILES IDX 1 1 2 2 3 3 4 4 5 5 6 6 7 7 8 8 20 9 21 10 9 11 10 12 22 13
REMARK SMILES IDX 23 14 11 15 12 16 19 17 13 18 18 19 14 20 17 21 15 22 16 23
REMARK H PARENT
ROOT
ATOM      1  C   UNL     1       6.301  41.505  49.969  1.00  0.00     0.146 C 
ATOM      2  N   UNL     1       6.177  42.941  50.186  1.00  0.00    -0.345 N 
ATOM      3  C   UNL     1       6.980  43.951  49.527  1.00  0.00     0.120 C 
ATOM      4  C   UNL     1       6.410  45.299  49.997  1.00  0.00     0.038 C 
ATOM      5  C   UNL     1       5.578  45.020  51.285  1.00  0.00     0.054 C 
ATOM      6  C   UNL     1       6.414  45.356  52.542  1.00  0.00     0.038 C 
ATOM      7  C   UNL     1       5.645  45.056  53.839  1.00  0.00     0.121 C 
ATOM      8  N   UNL     1       4.227  45.439  53.743  1.00  0.00    -0.337 N 
ATOM      9  C   UNL     1       3.793  46.328  52.657  1.00  0.00     0.121 C 
ATOM     10  C   UNL     1       4.225  45.798  51.276  1.00  0.00     0.038 C 
ATOM     11  C   UNL     1       3.386  45.244  54.897  1.00  0.00     0.272 C 
ATOM     12  O   UNL     1       3.893  45.291  56.051  1.00  0.00    -0.267 OA
ATOM     13  C   UNL     1       5.375  43.540  51.184  1.00  0.00     0.228 C 
ATOM     14  O   UNL     1       4.596  42.875  51.918  1.00  0.00    -0.274 OA
ENDROOT
BRANCH  11  15
ATOM     15  C   UNL     1       1.936  44.995  54.774  1.00  0.00     0.130 A 
ATOM     16  C   UNL     1       0.948  45.584  55.557  1.00  0.00     0.036 A 
ATOM     17  N   UNL     1       1.354  44.125  53.930  1.00  0.00    -0.228 N 
ATOM     18  C   UNL     1      -0.273  45.055  55.146  1.00  0.00     0.031 A 
ATOM     19  N   UNL     1       1.934  43.300  53.059  1.00  0.00    -0.176 NA
ATOM     20  C   UNL     1       0.031  44.156  54.143  1.00  0.00     0.066 A 
ATOM     21  C   UNL     1       1.160  42.463  52.311  1.00  0.00     0.134 A 
ATOM     22  C   UNL     1      -0.821  43.329  53.419  1.00  0.00     0.030 A 
ATOM     23  C   UNL     1      -0.237  42.468  52.479  1.00  0.00     0.024 A 
ENDBRANCH  11  15
TORSDOF 1
ENDMDL
