ligand_47_conformer_2_docked
     RDKit          3D

 43 46  0  0  0  0  0  0  0  0999 V2000
    8.1420   43.5670   48.7490 C   0  0  0  0  0  0  0  0  0  0  0  0
    6.9770   43.6190   49.6280 N   0  0  0  0  0  0  0  0  0  0  0  0
    6.0260   42.6670   49.8080 C   0  0  0  0  0  0  0  0  0  0  0  0
    5.9970   41.5840   49.1640 O   0  0  0  0  0  0  0  0  0  0  0  0
    5.1250   42.9930   50.7680 N   0  0  0  0  0  0  0  0  0  0  0  0
    4.0340   42.1710   51.2850 C   0  0  0  0  0  0  0  0  0  0  0  0
    5.5570   44.1830   51.2350 C   0  0  0  0  0  0  0  0  0  0  0  0
    5.0430   44.9470   52.2800 C   0  0  0  0  0  0  0  0  0  0  0  0
    5.7100   46.1440   52.6210 C   0  0  0  0  0  0  0  0  0  0  0  0
    5.1080   47.1070   53.9770 S   0  0  0  0  0  0  0  0  0  0  0  0
    6.2280   47.3200   54.9560 O   0  0  0  0  0  0  0  0  0  0  0  0
    4.6210   48.4500   53.5070 O   0  0  0  0  0  0  0  0  0  0  0  0
    3.8040   46.2740   54.7620 N   0  0  0  0  0  0  0  0  0  0  0  0
    2.7600   45.5940   54.0450 C   0  0  0  0  0  0  0  0  0  0  0  0
    2.0060   46.3060   53.0820 C   0  0  0  0  0  0  0  0  0  0  0  0
    0.9660   45.6760   52.3790 C   0  0  0  0  0  0  0  0  0  0  0  0
    0.7000   44.3350   52.6450 C   0  0  0  0  0  0  0  0  0  0  0  0
    1.4310   43.6390   53.5630 C   0  0  0  0  0  0  0  0  0  0  0  0
    2.4720   44.2300   54.2760 C   0  0  0  0  0  0  0  0  0  0  0  0
    0.9950   42.3010   53.6710 N   0  0  0  0  0  0  0  0  0  0  0  0
   -0.1200   42.0980   52.7480 C   0  0  0  0  0  0  0  0  0  0  0  0
   -0.3400   43.4590   52.0380 C   0  0  0  0  0  0  0  0  0  0  0  0
    6.8760   46.5360   51.8990 C   0  0  0  0  0  0  0  0  0  0  0  0
    7.8400   48.1430   52.3080 Br  0  0  0  0  0  0  0  0  0  0  0  0
    7.3670   45.7320   50.8520 C   0  0  0  0  0  0  0  0  0  0  0  0
    6.6770   44.5610   50.5460 C   0  0  0  0  0  0  0  0  0  0  0  0
    9.0581   43.5261   49.3565 H   0  0  0  0  0  0  0  0  0  0  0  0
    8.0827   42.6706   48.1142 H   0  0  0  0  0  0  0  0  0  0  0  0
    8.1628   44.4651   48.1142 H   0  0  0  0  0  0  0  0  0  0  0  0
    4.0533   42.1856   52.3847 H   0  0  0  0  0  0  0  0  0  0  0  0
    3.0730   42.5715   50.9298 H   0  0  0  0  0  0  0  0  0  0  0  0
    4.1540   41.1369   50.9298 H   0  0  0  0  0  0  0  0  0  0  0  0
    4.1425   44.6268   52.8246 H   0  0  0  0  0  0  0  0  0  0  0  0
    3.8790   46.1400   55.7950 H   0  0  0  0  0  0  0  0  0  0  0  0
    2.2366   47.3628   52.8822 H   0  0  0  0  0  0  0  0  0  0  0  0
    0.3746   46.2295   51.6348 H   0  0  0  0  0  0  0  0  0  0  0  0
    3.0570   43.6474   55.0029 H   0  0  0  0  0  0  0  0  0  0  0  0
    1.3990   41.5780   54.3050 H   0  0  0  0  0  0  0  0  0  0  0  0
    0.1296   41.3191   52.0125 H   0  0  0  0  0  0  0  0  0  0  0  0
   -1.0263   41.7683   53.2771 H   0  0  0  0  0  0  0  0  0  0  0  0
   -0.1914   43.3654   50.9521 H   0  0  0  0  0  0  0  0  0  0  0  0
   -1.3600   43.8506   52.1653 H   0  0  0  0  0  0  0  0  0  0  0  0
    8.2690   46.0202   50.2922 H   0  0  0  0  0  0  0  0  0  0  0  0
  1  2  1  0
  2  3  1  0
  3  4  2  0
  3  5  1  0
  5  6  1  0
  5  7  1  0
  7  8  2  0
  8  9  1  0
  9 10  1  0
 10 11  2  0
 10 12  2  0
 10 13  1  0
 13 14  1  0
 14 15  2  0
 15 16  1  0
 16 17  2  0
 17 18  1  0
 18 19  2  0
 18 20  1  0
 20 21  1  0
 21 22  1  0
  9 23  2  0
 23 24  1  0
 23 25  1  0
 25 26  2  0
 26  2  1  0
 26  7  1  0
 19 14  1  0
 22 17  1  0
  1 27  1  0
  1 28  1  0
  1 29  1  0
  6 30  1  0
  6 31  1  0
  6 32  1  0
  8 33  1  0
 13 34  1  0
 15 35  1  0
 16 36  1  0
 19 37  1  0
 20 38  1  0
 21 39  1  0
 21 40  1  0
 22 41  1  0
 22 42  1  0
 25 43  1  0
M  END
>  <meeko>  (1) 
{"is_sidechain": [false], "free_energy": -9.393, "intermolecular_energy": -11.04, "internal_energy": 0.118}

$$$$
ligand_47_conformer_2_docked
     RDKit          3D

 43 46  0  0  0  0  0  0  0  0999 V2000
   -2.1160   43.7750   56.0520 C   0  0  0  0  0  0  0  0  0  0  0  0
   -1.6650   43.9260   54.6700 N   0  0  0  0  0  0  0  0  0  0  0  0
   -2.3970   43.7870   53.5360 C   0  0  0  0  0  0  0  0  0  0  0  0
   -3.6080   43.4370   53.5290 O   0  0  0  0  0  0  0  0  0  0  0  0
   -1.6970   44.0850   52.4140 N   0  0  0  0  0  0  0  0  0  0  0  0
   -2.1900   44.1360   51.0400 C   0  0  0  0  0  0  0  0  0  0  0  0
   -0.4860   44.4660   52.8720 C   0  0  0  0  0  0  0  0  0  0  0  0
    0.6070   44.9460   52.1530 C   0  0  0  0  0  0  0  0  0  0  0  0
    1.7580   45.3360   52.8710 C   0  0  0  0  0  0  0  0  0  0  0  0
    3.1410   45.9950   51.9870 S   0  0  0  0  0  0  0  0  0  0  0  0
    2.7910   46.0720   50.5270 O   0  0  0  0  0  0  0  0  0  0  0  0
    3.4790   47.3760   52.4730 O   0  0  0  0  0  0  0  0  0  0  0  0
    4.5210   44.9650   52.1970 N   0  0  0  0  0  0  0  0  0  0  0  0
    5.8750   45.4470   52.1590 C   0  0  0  0  0  0  0  0  0  0  0  0
    6.5860   45.4160   50.9370 C   0  0  0  0  0  0  0  0  0  0  0  0
    7.9170   45.8620   50.8710 C   0  0  0  0  0  0  0  0  0  0  0  0
    8.5160   46.3410   52.0340 C   0  0  0  0  0  0  0  0  0  0  0  0
    7.8310   46.3850   53.2140 C   0  0  0  0  0  0  0  0  0  0  0  0
    6.5100   45.9550   53.3150 C   0  0  0  0  0  0  0  0  0  0  0  0
    8.6260   46.9070   54.2570 N   0  0  0  0  0  0  0  0  0  0  0  0
    9.9460   47.2310   53.7210 C   0  0  0  0  0  0  0  0  0  0  0  0
    9.9000   46.8600   52.2170 C   0  0  0  0  0  0  0  0  0  0  0  0
    1.7740   45.2320   54.2940 C   0  0  0  0  0  0  0  0  0  0  0  0
    3.2970   45.7490   55.3400 Br  0  0  0  0  0  0  0  0  0  0  0  0
    0.6460   44.7480   54.9840 C   0  0  0  0  0  0  0  0  0  0  0  0
   -0.4680   44.3710   54.2360 C   0  0  0  0  0  0  0  0  0  0  0  0
   -1.2992   44.0485   56.7362 H   0  0  0  0  0  0  0  0  0  0  0  0
   -2.9792   44.4331   56.2300 H   0  0  0  0  0  0  0  0  0  0  0  0
   -2.4090   42.7298   56.2300 H   0  0  0  0  0  0  0  0  0  0  0  0
   -3.2841   44.2492   51.0470 H   0  0  0  0  0  0  0  0  0  0  0  0
   -1.7361   44.9920   50.5191 H   0  0  0  0  0  0  0  0  0  0  0  0
   -1.9210   43.2052   50.5191 H   0  0  0  0  0  0  0  0  0  0  0  0
    0.5737   45.0190   51.0559 H   0  0  0  0  0  0  0  0  0  0  0  0
    4.3410   43.9860   52.5120 H   0  0  0  0  0  0  0  0  0  0  0  0
    6.0923   45.0391   50.0291 H   0  0  0  0  0  0  0  0  0  0  0  0
    8.4733   45.8335   49.9225 H   0  0  0  0  0  0  0  0  0  0  0  0
    5.9728   46.0096   54.2734 H   0  0  0  0  0  0  0  0  0  0  0  0
    8.3230   47.0370   55.2470 H   0  0  0  0  0  0  0  0  0  0  0  0
   10.1554   48.3039   53.8436 H   0  0  0  0  0  0  0  0  0  0  0  0
   10.7402   46.6812   54.2472 H   0  0  0  0  0  0  0  0  0  0  0  0
   10.0755   47.7448   51.5874 H   0  0  0  0  0  0  0  0  0  0  0  0
   10.6738   46.1330   51.9292 H   0  0  0  0  0  0  0  0  0  0  0  0
    0.6441   44.6697   56.0812 H   0  0  0  0  0  0  0  0  0  0  0  0
  1  2  1  0
  2  3  1  0
  3  4  2  0
  3  5  1  0
  5  6  1  0
  5  7  1  0
  7  8  2  0
  8  9  1  0
  9 10  1  0
 10 11  2  0
 10 12  2  0
 10 13  1  0
 13 14  1  0
 14 15  2  0
 15 16  1  0
 16 17  2  0
 17 18  1  0
 18 19  2  0
 18 20  1  0
 20 21  1  0
 21 22  1  0
  9 23  2  0
 23 24  1  0
 23 25  1  0
 25 26  2  0
 26  2  1  0
 26  7  1  0
 19 14  1  0
 22 17  1  0
  1 27  1  0
  1 28  1  0
  1 29  1  0
  6 30  1  0
  6 31  1  0
  6 32  1  0
  8 33  1  0
 13 34  1  0
 15 35  1  0
 16 36  1  0
 19 37  1  0
 20 38  1  0
 21 39  1  0
 21 40  1  0
 22 41  1  0
 22 42  1  0
 25 43  1  0
M  END
>  <meeko>  (2) 
{"is_sidechain": [false], "free_energy": -9.355, "intermolecular_energy": -10.578, "internal_energy": -0.3}

$$$$
ligand_47_conformer_2_docked
     RDKit          3D

 43 46  0  0  0  0  0  0  0  0999 V2000
    3.4680   40.2380   49.4230 C   0  0  0  0  0  0  0  0  0  0  0  0
    4.2460   41.3670   49.9270 N   0  0  0  0  0  0  0  0  0  0  0  0
    5.4490   41.8130   49.4840 C   0  0  0  0  0  0  0  0  0  0  0  0
    6.1070   41.2460   48.5710 O   0  0  0  0  0  0  0  0  0  0  0  0
    5.8590   42.9440   50.1110 N   0  0  0  0  0  0  0  0  0  0  0  0
    7.0460   43.7450   49.8240 C   0  0  0  0  0  0  0  0  0  0  0  0
    4.8470   43.2380   50.9530 C   0  0  0  0  0  0  0  0  0  0  0  0
    4.7070   44.3390   51.7950 C   0  0  0  0  0  0  0  0  0  0  0  0
    3.5180   44.4550   52.5500 C   0  0  0  0  0  0  0  0  0  0  0  0
    3.2930   45.8680   53.5880 S   0  0  0  0  0  0  0  0  0  0  0  0
    1.8830   46.3660   53.4320 O   0  0  0  0  0  0  0  0  0  0  0  0
    3.5200   45.5150   55.0320 O   0  0  0  0  0  0  0  0  0  0  0  0
    4.4020   47.1210   53.1300 N   0  0  0  0  0  0  0  0  0  0  0  0
    5.8290   46.9870   53.2360 C   0  0  0  0  0  0  0  0  0  0  0  0
    6.4410   47.0980   54.5070 C   0  0  0  0  0  0  0  0  0  0  0  0
    7.8350   46.9900   54.6430 C   0  0  0  0  0  0  0  0  0  0  0  0
    8.5990   46.7650   53.5000 C   0  0  0  0  0  0  0  0  0  0  0  0
    8.0150   46.6450   52.2720 C   0  0  0  0  0  0  0  0  0  0  0  0
    6.6360   46.7420   52.1020 C   0  0  0  0  0  0  0  0  0  0  0  0
    8.9710   46.4180   51.2600 N   0  0  0  0  0  0  0  0  0  0  0  0
   10.2980   46.3890   51.8700 C   0  0  0  0  0  0  0  0  0  0  0  0
   10.0770   46.6190   53.3870 C   0  0  0  0  0  0  0  0  0  0  0  0
    2.5060   43.4570   52.4330 C   0  0  0  0  0  0  0  0  0  0  0  0
    0.8620   43.5480   53.4170 Br  0  0  0  0  0  0  0  0  0  0  0  0
    2.6840   42.3620   51.5650 C   0  0  0  0  0  0  0  0  0  0  0  0
    3.8720   42.2850   50.8420 C   0  0  0  0  0  0  0  0  0  0  0  0
    3.0697   39.6600   50.2699 H   0  0  0  0  0  0  0  0  0  0  0  0
    2.6347   40.6116   48.8098 H   0  0  0  0  0  0  0  0  0  0  0  0
    4.1138   39.5923   48.8098 H   0  0  0  0  0  0  0  0  0  0  0  0
    7.5129   44.0601   50.7688 H   0  0  0  0  0  0  0  0  0  0  0  0
    7.7619   43.1446   49.2435 H   0  0  0  0  0  0  0  0  0  0  0  0
    6.7572   44.6336   49.2435 H   0  0  0  0  0  0  0  0  0  0  0  0
    5.5003   45.0973   51.8701 H   0  0  0  0  0  0  0  0  0  0  0  0
    4.0080   47.9410   52.6160 H   0  0  0  0  0  0  0  0  0  0  0  0
    5.8189   47.2706   55.3976 H   0  0  0  0  0  0  0  0  0  0  0  0
    8.3125   47.0810   55.6297 H   0  0  0  0  0  0  0  0  0  0  0  0
    6.1842   46.6302   51.1053 H   0  0  0  0  0  0  0  0  0  0  0  0
    8.7660   46.2940   50.2450 H   0  0  0  0  0  0  0  0  0  0  0  0
   10.7767   45.4138   51.6972 H   0  0  0  0  0  0  0  0  0  0  0  0
   10.9565   47.1571   51.4381 H   0  0  0  0  0  0  0  0  0  0  0  0
   10.4338   45.7585   53.9721 H   0  0  0  0  0  0  0  0  0  0  0  0
   10.6263   47.4896   53.7748 H   0  0  0  0  0  0  0  0  0  0  0  0
    1.9073   41.5901   51.4612 H   0  0  0  0  0  0  0  0  0  0  0  0
  1  2  1  0
  2  3  1  0
  3  4  2  0
  3  5  1  0
  5  6  1  0
  5  7  1  0
  7  8  2  0
  8  9  1  0
  9 10  1  0
 10 11  2  0
 10 12  2  0
 10 13  1  0
 13 14  1  0
 14 15  2  0
 15 16  1  0
 16 17  2  0
 17 18  1  0
 18 19  2  0
 18 20  1  0
 20 21  1  0
 21 22  1  0
  9 23  2  0
 23 24  1  0
 23 25  1  0
 25 26  2  0
 26  2  1  0
 26  7  1  0
 19 14  1  0
 22 17  1  0
  1 27  1  0
  1 28  1  0
  1 29  1  0
  6 30  1  0
  6 31  1  0
  6 32  1  0
  8 33  1  0
 13 34  1  0
 15 35  1  0
 16 36  1  0
 19 37  1  0
 20 38  1  0
 21 39  1  0
 21 40  1  0
 22 41  1  0
 22 42  1  0
 25 43  1  0
M  END
>  <meeko>  (3) 
{"is_sidechain": [false], "free_energy": -9.101, "intermolecular_energy": -10.815, "internal_energy": 0.236}

$$$$
ligand_47_conformer_2_docked
     RDKit          3D

 43 46  0  0  0  0  0  0  0  0999 V2000
    0.9410   42.6510   53.5750 C   0  0  0  0  0  0  0  0  0  0  0  0
    2.1040   43.4750   53.2520 N   0  0  0  0  0  0  0  0  0  0  0  0
    2.5770   44.5500   53.9320 C   0  0  0  0  0  0  0  0  0  0  0  0
    2.0120   45.0320   54.9500 O   0  0  0  0  0  0  0  0  0  0  0  0
    3.7330   45.0370   53.4150 N   0  0  0  0  0  0  0  0  0  0  0  0
    4.5630   46.1150   53.9440 C   0  0  0  0  0  0  0  0  0  0  0  0
    4.0130   44.2040   52.3920 C   0  0  0  0  0  0  0  0  0  0  0  0
    5.1260   44.1950   51.5540 C   0  0  0  0  0  0  0  0  0  0  0  0
    5.2210   43.1770   50.5800 C   0  0  0  0  0  0  0  0  0  0  0  0
    6.6470   43.1150   49.5370 S   0  0  0  0  0  0  0  0  0  0  0  0
    7.6370   42.1480   50.1260 O   0  0  0  0  0  0  0  0  0  0  0  0
    6.2830   42.6460   48.1560 O   0  0  0  0  0  0  0  0  0  0  0  0
    7.3710   44.6880   49.4310 N   0  0  0  0  0  0  0  0  0  0  0  0
    8.1300   45.2790   50.4980 C   0  0  0  0  0  0  0  0  0  0  0  0
    9.5150   45.0050   50.5960 C   0  0  0  0  0  0  0  0  0  0  0  0
   10.2820   45.5510   51.6380 C   0  0  0  0  0  0  0  0  0  0  0  0
    9.6500   46.3750   52.5680 C   0  0  0  0  0  0  0  0  0  0  0  0
    8.3170   46.6540   52.4720 C   0  0  0  0  0  0  0  0  0  0  0  0
    7.5270   46.1320   51.4500 C   0  0  0  0  0  0  0  0  0  0  0  0
    7.8890   47.5060   53.5120 N   0  0  0  0  0  0  0  0  0  0  0  0
    9.0330   47.8130   54.3660 C   0  0  0  0  0  0  0  0  0  0  0  0
   10.2410   47.0620   53.7490 C   0  0  0  0  0  0  0  0  0  0  0  0
    4.1900   42.1960   50.4790 C   0  0  0  0  0  0  0  0  0  0  0  0
    4.2510   40.7780   49.1890 Br  0  0  0  0  0  0  0  0  0  0  0  0
    3.0830   42.2360   51.3500 C   0  0  0  0  0  0  0  0  0  0  0  0
    3.0280   43.2590   52.2940 C   0  0  0  0  0  0  0  0  0  0  0  0
    0.8362   42.5768   54.6675 H   0  0  0  0  0  0  0  0  0  0  0  0
    0.0365   43.1109   53.1503 H   0  0  0  0  0  0  0  0  0  0  0  0
    1.0749   41.6452   53.1503 H   0  0  0  0  0  0  0  0  0  0  0  0
    4.5422   46.0880   55.0435 H   0  0  0  0  0  0  0  0  0  0  0  0
    5.5978   45.9868   53.5936 H   0  0  0  0  0  0  0  0  0  0  0  0
    4.1745   47.0826   53.5936 H   0  0  0  0  0  0  0  0  0  0  0  0
    5.9101   44.9607   51.6486 H   0  0  0  0  0  0  0  0  0  0  0  0
    7.3740   45.1480   48.4920 H   0  0  0  0  0  0  0  0  0  0  0  0
    9.9958   44.3575   49.8480 H   0  0  0  0  0  0  0  0  0  0  0  0
   11.3572   45.3334   51.7185 H   0  0  0  0  0  0  0  0  0  0  0  0
    6.4569   46.3785   51.3854 H   0  0  0  0  0  0  0  0  0  0  0  0
    6.9160   47.8570   53.6490 H   0  0  0  0  0  0  0  0  0  0  0  0
    9.2218   48.8966   54.3770 H   0  0  0  0  0  0  0  0  0  0  0  0
    8.8541   47.5024   55.4060 H   0  0  0  0  0  0  0  0  0  0  0  0
   11.0280   47.7665   53.4420 H   0  0  0  0  0  0  0  0  0  0  0  0
   10.7226   46.3685   54.4541 H   0  0  0  0  0  0  0  0  0  0  0  0
    2.2853   41.4812   51.2864 H   0  0  0  0  0  0  0  0  0  0  0  0
  1  2  1  0
  2  3  1  0
  3  4  2  0
  3  5  1  0
  5  6  1  0
  5  7  1  0
  7  8  2  0
  8  9  1  0
  9 10  1  0
 10 11  2  0
 10 12  2  0
 10 13  1  0
 13 14  1  0
 14 15  2  0
 15 16  1  0
 16 17  2  0
 17 18  1  0
 18 19  2  0
 18 20  1  0
 20 21  1  0
 21 22  1  0
  9 23  2  0
 23 24  1  0
 23 25  1  0
 25 26  2  0
 26  2  1  0
 26  7  1  0
 19 14  1  0
 22 17  1  0
  1 27  1  0
  1 28  1  0
  1 29  1  0
  6 30  1  0
  6 31  1  0
  6 32  1  0
  8 33  1  0
 13 34  1  0
 15 35  1  0
 16 36  1  0
 19 37  1  0
 20 38  1  0
 21 39  1  0
 21 40  1  0
 22 41  1  0
 22 42  1  0
 25 43  1  0
M  END
>  <meeko>  (4) 
{"is_sidechain": [false], "free_energy": -9.054, "intermolecular_energy": -10.746, "internal_energy": 0.222}

$$$$
ligand_47_conformer_2_docked
     RDKit          3D

 43 46  0  0  0  0  0  0  0  0999 V2000
    9.3860   46.3110   51.3580 C   0  0  0  0  0  0  0  0  0  0  0  0
    8.2340   45.5660   50.8570 N   0  0  0  0  0  0  0  0  0  0  0  0
    8.2270   44.5470   49.9610 C   0  0  0  0  0  0  0  0  0  0  0  0
    9.2630   44.1280   49.3770 O   0  0  0  0  0  0  0  0  0  0  0  0
    6.9950   44.0110   49.7780 N   0  0  0  0  0  0  0  0  0  0  0  0
    6.6370   42.8500   48.9680 C   0  0  0  0  0  0  0  0  0  0  0  0
    6.2060   44.7010   50.6260 C   0  0  0  0  0  0  0  0  0  0  0  0
    4.8520   44.5200   50.9000 C   0  0  0  0  0  0  0  0  0  0  0  0
    4.2540   45.3420   51.8800 C   0  0  0  0  0  0  0  0  0  0  0  0
    2.5490   45.0990   52.2830 S   0  0  0  0  0  0  0  0  0  0  0  0
    1.8590   46.4350   52.2990 O   0  0  0  0  0  0  0  0  0  0  0  0
    1.8760   44.2250   51.2620 O   0  0  0  0  0  0  0  0  0  0  0  0
    2.4100   44.3580   53.8450 N   0  0  0  0  0  0  0  0  0  0  0  0
    1.2700   44.5370   54.7020 C   0  0  0  0  0  0  0  0  0  0  0  0
    1.4420   45.1610   55.9600 C   0  0  0  0  0  0  0  0  0  0  0  0
    0.3510   45.3330   56.8290 C   0  0  0  0  0  0  0  0  0  0  0  0
   -0.9020   44.8830   56.4200 C   0  0  0  0  0  0  0  0  0  0  0  0
   -1.0780   44.2910   55.2030 C   0  0  0  0  0  0  0  0  0  0  0  0
   -0.0200   44.1070   54.3150 C   0  0  0  0  0  0  0  0  0  0  0  0
   -2.4220   43.9160   54.9950 N   0  0  0  0  0  0  0  0  0  0  0  0
   -3.1980   44.2900   56.1750 C   0  0  0  0  0  0  0  0  0  0  0  0
   -2.1950   44.9480   57.1560 C   0  0  0  0  0  0  0  0  0  0  0  0
    5.0380   46.3230   52.5560 C   0  0  0  0  0  0  0  0  0  0  0  0
    4.3000   47.4710   53.9040 Br  0  0  0  0  0  0  0  0  0  0  0  0
    6.4060   46.4710   52.2550 C   0  0  0  0  0  0  0  0  0  0  0  0
    6.9550   45.6410   51.2790 C   0  0  0  0  0  0  0  0  0  0  0  0
    9.3765   46.3048   52.4579 H   0  0  0  0  0  0  0  0  0  0  0  0
   10.3123   45.8405   50.9967 H   0  0  0  0  0  0  0  0  0  0  0  0
    9.3368   47.3488   50.9967 H   0  0  0  0  0  0  0  0  0  0  0  0
    6.3776   42.0087   49.6275 H   0  0  0  0  0  0  0  0  0  0  0  0
    5.7736   43.0980   48.3332 H   0  0  0  0  0  0  0  0  0  0  0  0
    7.4901   42.5687   48.3332 H   0  0  0  0  0  0  0  0  0  0  0  0
    4.2648   43.7574   50.3673 H   0  0  0  0  0  0  0  0  0  0  0  0
    3.1220   43.6360   54.0940 H   0  0  0  0  0  0  0  0  0  0  0  0
    2.4391   45.5149   56.2608 H   0  0  0  0  0  0  0  0  0  0  0  0
    0.4837   45.8123   57.8102 H   0  0  0  0  0  0  0  0  0  0  0  0
   -0.1850   43.6373   53.3341 H   0  0  0  0  0  0  0  0  0  0  0  0
   -2.7990   43.4480   54.1420 H   0  0  0  0  0  0  0  0  0  0  0  0
   -3.9891   45.0037   55.9016 H   0  0  0  0  0  0  0  0  0  0  0  0
   -3.6891   43.4159   56.6275 H   0  0  0  0  0  0  0  0  0  0  0  0
   -2.4763   45.9903   57.3667 H   0  0  0  0  0  0  0  0  0  0  0  0
   -2.1586   44.4468   58.1345 H   0  0  0  0  0  0  0  0  0  0  0  0
    7.0226   47.2192   52.7746 H   0  0  0  0  0  0  0  0  0  0  0  0
  1  2  1  0
  2  3  1  0
  3  4  2  0
  3  5  1  0
  5  6  1  0
  5  7  1  0
  7  8  2  0
  8  9  1  0
  9 10  1  0
 10 11  2  0
 10 12  2  0
 10 13  1  0
 13 14  1  0
 14 15  2  0
 15 16  1  0
 16 17  2  0
 17 18  1  0
 18 19  2  0
 18 20  1  0
 20 21  1  0
 21 22  1  0
  9 23  2  0
 23 24  1  0
 23 25  1  0
 25 26  2  0
 26  2  1  0
 26  7  1  0
 19 14  1  0
 22 17  1  0
  1 27  1  0
  1 28  1  0
  1 29  1  0
  6 30  1  0
  6 31  1  0
  6 32  1  0
  8 33  1  0
 13 34  1  0
 15 35  1  0
 16 36  1  0
 19 37  1  0
 20 38  1  0
 21 39  1  0
 21 40  1  0
 22 41  1  0
 22 42  1  0
 25 43  1  0
M  END
>  <meeko>  (5) 
{"is_sidechain": [false], "free_energy": -8.929, "intermolecular_energy": -10.152, "internal_energy": -0.225}

$$$$
