MODEL 1
REMARK VINA RESULT:    -8.480      0.000      0.000
REMARK INTER + INTRA:         -11.943
REMARK INTER:                 -11.454
REMARK INTRA:                  -0.489
REMARK UNBOUND:                -0.489
REMARK SMILES O=C(Nc1cccc(OC(F)F)c1)c1ccc(Nc2ncccn2)cc1
REMARK SMILES IDX 4 1 5 2 6 3 7 4 8 5 13 6 3 7 1 8 2 9 14 11 15 12 26 13 16 14
REMARK SMILES IDX 25 15 17 16 18 17 19 19 20 20 24 21 21 22 23 23 22 24 9 25
REMARK SMILES IDX 10 26 11 27 12 28
REMARK H PARENT 3 10 18 18
ROOT
ATOM      1  C   UNL     1       7.150  46.599  52.651  1.00  0.00     0.045 A 
ATOM      2  C   UNL     1       7.857  46.921  51.483  1.00  0.00     0.026 A 
ATOM      3  C   UNL     1       9.236  47.136  51.529  1.00  0.00     0.006 A 
ATOM      4  C   UNL     1       9.923  47.019  52.739  1.00  0.00     0.047 A 
ATOM      5  C   UNL     1       9.243  46.678  53.913  1.00  0.00     0.128 A 
ATOM      6  C   UNL     1       7.851  46.460  53.863  1.00  0.00     0.072 A 
ENDROOT
BRANCH   1   7
ATOM      7  N   UNL     1       5.733  46.363  52.575  1.00  0.00    -0.322 N 
ATOM      8  O   UNL     1       5.092  47.852  54.255  1.00  0.00    -0.269 OA
ATOM      9  C   UNL     1       4.788  46.859  53.539  1.00  0.00     0.255 C 
ATOM     10  H   UNL     1       5.359  45.906  51.713  1.00  0.00     0.170 HD
BRANCH   9  11
ATOM     11  C   UNL     1       3.442  46.252  53.666  1.00  0.00     0.040 A 
ATOM     12  C   UNL     1       2.488  46.387  52.642  1.00  0.00     0.016 A 
ATOM     13  C   UNL     1       3.109  45.502  54.808  1.00  0.00     0.016 A 
ATOM     14  C   UNL     1       1.222  45.806  52.769  1.00  0.00     0.027 A 
ATOM     15  C   UNL     1       1.844  44.921  54.933  1.00  0.00     0.027 A 
ATOM     16  C   UNL     1       0.883  45.086  53.926  1.00  0.00     0.041 A 
BRANCH  16  17
ATOM     17  N   UNL     1      -0.403  44.459  54.069  1.00  0.00    -0.324 N 
ATOM     18  H   UNL     1      -0.758  43.876  53.276  1.00  0.00     0.170 HD
BRANCH  17  19
ATOM     19  C   UNL     1      -1.187  44.489  55.271  1.00  0.00     0.227 A 
ATOM     20  N   UNL     1      -1.854  43.381  55.697  1.00  0.00    -0.221 NA
ATOM     21  N   UNL     1      -1.308  45.654  55.964  1.00  0.00    -0.221 NA
ATOM     22  C   UNL     1      -2.620  43.411  56.818  1.00  0.00     0.117 A 
ATOM     23  C   UNL     1      -2.065  45.725  57.090  1.00  0.00     0.117 A 
ATOM     24  C   UNL     1      -2.741  44.595  57.545  1.00  0.00     0.040 A 
ENDBRANCH  17  19
ENDBRANCH  16  17
ENDBRANCH   9  11
ENDBRANCH   1   7
BRANCH   5  25
ATOM     25  O   UNL     1       9.985  46.558  55.099  1.00  0.00    -0.435 OA
BRANCH  25  26
ATOM     26  C   UNL     1      10.701  47.622  55.720  1.00  0.00     0.542 C 
ATOM     27  F   UNL     1       9.807  48.601  56.109  1.00  0.00    -0.167 F 
ATOM     28  F   UNL     1      11.369  47.155  56.837  1.00  0.00    -0.167 F 
ENDBRANCH  25  26
ENDBRANCH   5  25
TORSDOF 6
ENDMDL
MODEL 2
REMARK VINA RESULT:    -8.463      2.736      3.666
REMARK INTER + INTRA:         -11.920
REMARK INTER:                 -11.176
REMARK INTRA:                  -0.744
REMARK UNBOUND:                -0.489
REMARK SMILES O=C(Nc1cccc(OC(F)F)c1)c1ccc(Nc2ncccn2)cc1
REMARK SMILES IDX 4 1 5 2 6 3 7 4 8 5 13 6 3 7 1 8 2 9 14 11 15 12 26 13 16 14
REMARK SMILES IDX 25 15 17 16 18 17 19 19 20 20 24 21 21 22 23 23 22 24 9 25
REMARK SMILES IDX 10 26 11 27 12 28
REMARK H PARENT 3 10 18 18
ROOT
ATOM      1  C   UNL     1       5.440  44.368  51.542  1.00  0.00     0.045 A 
ATOM      2  C   UNL     1       5.707  43.425  50.539  1.00  0.00     0.026 A 
ATOM      3  C   UNL     1       6.815  43.579  49.702  1.00  0.00     0.006 A 
ATOM      4  C   UNL     1       7.673  44.668  49.868  1.00  0.00     0.047 A 
ATOM      5  C   UNL     1       7.439  45.610  50.875  1.00  0.00     0.128 A 
ATOM      6  C   UNL     1       6.321  45.451  51.719  1.00  0.00     0.072 A 
ENDROOT
BRANCH   1   7
ATOM      7  N   UNL     1       4.305  44.178  52.405  1.00  0.00    -0.322 N 
ATOM      8  O   UNL     1       2.842  45.619  51.293  1.00  0.00    -0.269 OA
ATOM      9  C   UNL     1       3.117  44.985  52.349  1.00  0.00     0.255 C 
ATOM     10  H   UNL     1       4.298  43.336  53.024  1.00  0.00     0.170 HD
BRANCH   9  11
ATOM     11  C   UNL     1       2.182  45.042  53.499  1.00  0.00     0.040 A 
ATOM     12  C   UNL     1       2.658  45.226  54.809  1.00  0.00     0.016 A 
ATOM     13  C   UNL     1       0.795  44.943  53.290  1.00  0.00     0.016 A 
ATOM     14  C   UNL     1       1.769  45.285  55.886  1.00  0.00     0.027 A 
ATOM     15  C   UNL     1      -0.092  45.002  54.368  1.00  0.00     0.027 A 
ATOM     16  C   UNL     1       0.387  45.151  55.676  1.00  0.00     0.041 A 
BRANCH  16  17
ATOM     17  N   UNL     1      -0.548  45.232  56.765  1.00  0.00    -0.324 N 
ATOM     18  H   UNL     1      -0.994  44.347  57.099  1.00  0.00     0.170 HD
BRANCH  17  19
ATOM     19  C   UNL     1      -0.830  46.433  57.499  1.00  0.00     0.227 A 
ATOM     20  N   UNL     1      -0.038  46.819  58.537  1.00  0.00    -0.221 NA
ATOM     21  N   UNL     1      -1.933  47.165  57.188  1.00  0.00    -0.221 NA
ATOM     22  C   UNL     1      -0.317  47.938  59.253  1.00  0.00     0.117 A 
ATOM     23  C   UNL     1      -2.246  48.291  57.881  1.00  0.00     0.117 A 
ATOM     24  C   UNL     1      -1.436  48.706  58.936  1.00  0.00     0.040 A 
ENDBRANCH  17  19
ENDBRANCH  16  17
ENDBRANCH   9  11
ENDBRANCH   1   7
BRANCH   5  25
ATOM     25  O   UNL     1       8.341  46.677  51.008  1.00  0.00    -0.435 OA
BRANCH  25  26
ATOM     26  C   UNL     1       8.475  47.488  52.171  1.00  0.00     0.542 C 
ATOM     27  F   UNL     1       9.790  47.460  52.593  1.00  0.00    -0.167 F 
ATOM     28  F   UNL     1       8.123  48.794  51.881  1.00  0.00    -0.167 F 
ENDBRANCH  25  26
ENDBRANCH   5  25
TORSDOF 6
ENDMDL
MODEL 3
REMARK VINA RESULT:    -8.411      2.455      3.010
REMARK INTER + INTRA:         -11.850
REMARK INTER:                 -11.349
REMARK INTRA:                  -0.501
REMARK UNBOUND:                -0.489
REMARK SMILES O=C(Nc1cccc(OC(F)F)c1)c1ccc(Nc2ncccn2)cc1
REMARK SMILES IDX 4 1 5 2 6 3 7 4 8 5 13 6 3 7 1 8 2 9 14 11 15 12 26 13 16 14
REMARK SMILES IDX 25 15 17 16 18 17 19 19 20 20 24 21 21 22 23 23 22 24 9 25
REMARK SMILES IDX 10 26 11 27 12 28
REMARK H PARENT 3 10 18 18
ROOT
ATOM      1  C   UNL     1       7.224  46.418  53.025  1.00  0.00     0.045 A 
ATOM      2  C   UNL     1       8.113  46.173  51.969  1.00  0.00     0.026 A 
ATOM      3  C   UNL     1       9.449  46.570  52.063  1.00  0.00     0.006 A 
ATOM      4  C   UNL     1       9.912  47.205  53.217  1.00  0.00     0.047 A 
ATOM      5  C   UNL     1       9.048  47.443  54.292  1.00  0.00     0.128 A 
ATOM      6  C   UNL     1       7.701  47.039  54.195  1.00  0.00     0.072 A 
ENDROOT
BRANCH   1   7
ATOM      7  N   UNL     1       5.858  45.982  52.913  1.00  0.00    -0.322 N 
ATOM      8  O   UNL     1       5.850  44.551  54.759  1.00  0.00    -0.269 OA
ATOM      9  C   UNL     1       5.301  44.899  53.677  1.00  0.00     0.255 C 
ATOM     10  H   UNL     1       5.208  46.557  52.332  1.00  0.00     0.170 HD
BRANCH   9  11
ATOM     11  C   UNL     1       4.061  44.216  53.236  1.00  0.00     0.040 A 
ATOM     12  C   UNL     1       4.090  43.254  52.211  1.00  0.00     0.016 A 
ATOM     13  C   UNL     1       2.834  44.503  53.862  1.00  0.00     0.016 A 
ATOM     14  C   UNL     1       2.916  42.613  51.805  1.00  0.00     0.027 A 
ATOM     15  C   UNL     1       1.662  43.860  53.455  1.00  0.00     0.027 A 
ATOM     16  C   UNL     1       1.688  42.927  52.410  1.00  0.00     0.041 A 
BRANCH  16  17
ATOM     17  N   UNL     1       0.472  42.263  52.027  1.00  0.00    -0.324 N 
ATOM     18  H   UNL     1       0.487  41.221  51.937  1.00  0.00     0.170 HD
BRANCH  17  19
ATOM     19  C   UNL     1      -0.792  42.923  51.866  1.00  0.00     0.227 A 
ATOM     20  N   UNL     1      -1.697  42.957  52.882  1.00  0.00    -0.221 NA
ATOM     21  N   UNL     1      -1.111  43.475  50.663  1.00  0.00    -0.221 NA
ATOM     22  C   UNL     1      -2.906  43.556  52.725  1.00  0.00     0.117 A 
ATOM     23  C   UNL     1      -2.311  44.082  50.467  1.00  0.00     0.117 A 
ATOM     24  C   UNL     1      -3.240  44.137  51.503  1.00  0.00     0.040 A 
ENDBRANCH  17  19
ENDBRANCH  16  17
ENDBRANCH   9  11
ENDBRANCH   1   7
BRANCH   5  25
ATOM     25  O   UNL     1       9.569  48.072  55.435  1.00  0.00    -0.435 OA
BRANCH  25  26
ATOM     26  C   UNL     1      10.840  47.787  56.011  1.00  0.00     0.542 C 
ATOM     27  F   UNL     1      10.866  48.265  57.307  1.00  0.00    -0.167 F 
ATOM     28  F   UNL     1      11.056  46.421  56.031  1.00  0.00    -0.167 F 
ENDBRANCH  25  26
ENDBRANCH   5  25
TORSDOF 6
ENDMDL
MODEL 4
REMARK VINA RESULT:    -8.177      6.104      7.795
REMARK INTER + INTRA:         -11.534
REMARK INTER:                 -10.766
REMARK INTRA:                  -0.768
REMARK UNBOUND:                -0.489
REMARK SMILES O=C(Nc1cccc(OC(F)F)c1)c1ccc(Nc2ncccn2)cc1
REMARK SMILES IDX 4 1 5 2 6 3 7 4 8 5 13 6 3 7 1 8 2 9 14 11 15 12 26 13 16 14
REMARK SMILES IDX 25 15 17 16 18 17 19 19 20 20 24 21 21 22 23 23 22 24 9 25
REMARK SMILES IDX 10 26 11 27 12 28
REMARK H PARENT 3 10 18 18
ROOT
ATOM      1  C   UNL     1       5.371  45.171  53.136  1.00  0.00     0.045 A 
ATOM      2  C   UNL     1       4.245  45.995  53.281  1.00  0.00     0.026 A 
ATOM      3  C   UNL     1       4.335  47.196  53.987  1.00  0.00     0.006 A 
ATOM      4  C   UNL     1       5.552  47.592  54.545  1.00  0.00     0.047 A 
ATOM      5  C   UNL     1       6.694  46.797  54.396  1.00  0.00     0.128 A 
ATOM      6  C   UNL     1       6.601  45.586  53.681  1.00  0.00     0.072 A 
ENDROOT
BRANCH   1   7
ATOM      7  N   UNL     1       5.259  43.948  52.387  1.00  0.00    -0.322 N 
ATOM      8  O   UNL     1       6.645  44.559  50.610  1.00  0.00    -0.269 OA
ATOM      9  C   UNL     1       5.745  43.787  51.044  1.00  0.00     0.255 C 
ATOM     10  H   UNL     1       4.909  43.099  52.887  1.00  0.00     0.170 HD
BRANCH   9  11
ATOM     11  C   UNL     1       5.241  42.694  50.178  1.00  0.00     0.040 A 
ATOM     12  C   UNL     1       4.093  41.963  50.532  1.00  0.00     0.016 A 
ATOM     13  C   UNL     1       5.891  42.392  48.968  1.00  0.00     0.016 A 
ATOM     14  C   UNL     1       3.622  40.938  49.707  1.00  0.00     0.027 A 
ATOM     15  C   UNL     1       5.417  41.368  48.144  1.00  0.00     0.027 A 
ATOM     16  C   UNL     1       4.294  40.617  48.516  1.00  0.00     0.041 A 
BRANCH  16  17
ATOM     17  N   UNL     1       3.814  39.584  47.639  1.00  0.00    -0.324 N 
ATOM     18  H   UNL     1       3.830  38.597  47.985  1.00  0.00     0.170 HD
BRANCH  17  19
ATOM     19  C   UNL     1       3.212  39.827  46.359  1.00  0.00     0.227 A 
ATOM     20  N   UNL     1       2.366  40.877  46.173  1.00  0.00    -0.221 NA
ATOM     21  N   UNL     1       3.447  38.964  45.333  1.00  0.00    -0.221 NA
ATOM     22  C   UNL     1       1.771  41.095  44.972  1.00  0.00     0.117 A 
ATOM     23  C   UNL     1       2.871  39.148  44.116  1.00  0.00     0.117 A 
ATOM     24  C   UNL     1       2.015  40.227  43.908  1.00  0.00     0.040 A 
ENDBRANCH  17  19
ENDBRANCH  16  17
ENDBRANCH   9  11
ENDBRANCH   1   7
BRANCH   5  25
ATOM     25  O   UNL     1       7.896  47.249  54.964  1.00  0.00    -0.435 OA
BRANCH  25  26
ATOM     26  C   UNL     1       8.964  47.848  54.236  1.00  0.00     0.542 C 
ATOM     27  F   UNL     1       9.949  46.904  54.020  1.00  0.00    -0.167 F 
ATOM     28  F   UNL     1       8.505  48.307  53.015  1.00  0.00    -0.167 F 
ENDBRANCH  25  26
ENDBRANCH   5  25
TORSDOF 6
ENDMDL
MODEL 5
REMARK VINA RESULT:    -8.063      2.023      2.669
REMARK INTER + INTRA:         -11.379
REMARK INTER:                 -10.664
REMARK INTRA:                  -0.715
REMARK UNBOUND:                -0.489
REMARK SMILES O=C(Nc1cccc(OC(F)F)c1)c1ccc(Nc2ncccn2)cc1
REMARK SMILES IDX 4 1 5 2 6 3 7 4 8 5 13 6 3 7 1 8 2 9 14 11 15 12 26 13 16 14
REMARK SMILES IDX 25 15 17 16 18 17 19 19 20 20 24 21 21 22 23 23 22 24 9 25
REMARK SMILES IDX 10 26 11 27 12 28
REMARK H PARENT 3 10 18 18
ROOT
ATOM      1  C   UNL     1       5.289  45.810  51.682  1.00  0.00     0.045 A 
ATOM      2  C   UNL     1       5.510  44.864  50.671  1.00  0.00     0.026 A 
ATOM      3  C   UNL     1       6.781  44.712  50.111  1.00  0.00     0.006 A 
ATOM      4  C   UNL     1       7.845  45.494  50.565  1.00  0.00     0.047 A 
ATOM      5  C   UNL     1       7.654  46.430  51.587  1.00  0.00     0.128 A 
ATOM      6  C   UNL     1       6.370  46.580  52.151  1.00  0.00     0.072 A 
ENDROOT
BRANCH   1   7
ATOM      7  N   UNL     1       3.977  45.935  52.257  1.00  0.00    -0.322 N 
ATOM      8  O   UNL     1       4.341  44.588  54.128  1.00  0.00    -0.269 OA
ATOM      9  C   UNL     1       3.508  45.138  53.357  1.00  0.00     0.255 C 
ATOM     10  H   UNL     1       3.375  46.727  51.933  1.00  0.00     0.170 HD
BRANCH   9  11
ATOM     11  C   UNL     1       2.057  44.993  53.627  1.00  0.00     0.040 A 
ATOM     12  C   UNL     1       1.119  45.029  52.580  1.00  0.00     0.016 A 
ATOM     13  C   UNL     1       1.598  44.787  54.940  1.00  0.00     0.016 A 
ATOM     14  C   UNL     1      -0.246  44.887  52.843  1.00  0.00     0.027 A 
ATOM     15  C   UNL     1       0.233  44.644  55.202  1.00  0.00     0.027 A 
ATOM     16  C   UNL     1      -0.702  44.715  54.161  1.00  0.00     0.041 A 
BRANCH  16  17
ATOM     17  N   UNL     1      -2.099  44.541  54.454  1.00  0.00    -0.324 N 
ATOM     18  H   UNL     1      -2.762  44.438  53.652  1.00  0.00     0.170 HD
BRANCH  17  19
ATOM     19  C   UNL     1      -2.633  44.391  55.778  1.00  0.00     0.227 A 
ATOM     20  N   UNL     1      -2.945  45.481  56.533  1.00  0.00    -0.221 NA
ATOM     21  N   UNL     1      -2.779  43.146  56.305  1.00  0.00    -0.221 NA
ATOM     22  C   UNL     1      -3.423  45.345  57.796  1.00  0.00     0.117 A 
ATOM     23  C   UNL     1      -3.255  42.968  57.565  1.00  0.00     0.117 A 
ATOM     24  C   UNL     1      -3.591  44.074  58.343  1.00  0.00     0.040 A 
ENDBRANCH  17  19
ENDBRANCH  16  17
ENDBRANCH   9  11
ENDBRANCH   1   7
BRANCH   5  25
ATOM     25  O   UNL     1       8.761  47.179  52.016  1.00  0.00    -0.435 OA
BRANCH  25  26
ATOM     26  C   UNL     1       9.874  46.649  52.728  1.00  0.00     0.542 C 
ATOM     27  F   UNL     1      10.921  46.451  51.848  1.00  0.00    -0.167 F 
ATOM     28  F   UNL     1      10.275  47.536  53.710  1.00  0.00    -0.167 F 
ENDBRANCH  25  26
ENDBRANCH   5  25
TORSDOF 6
ENDMDL
