ligand_6_conformer_5_docked
     RDKit          3D

 44 47  0  0  0  0  0  0  0  0999 V2000
    3.1500   46.7430   50.3260 O   0  0  0  0  0  0  0  0  0  0  0  0
    3.0740   45.9030   51.2630 C   0  0  0  0  0  0  0  0  0  0  0  0
    2.6310   44.5020   51.0850 C   0  0  0  0  0  0  0  0  0  0  0  0
    2.8730   43.8780   52.4790 C   0  0  1  0  0  0  0  0  0  0  0  0
    4.0770   43.0390   52.4490 N   0  0  0  0  0  0  0  0  0  0  0  0
    5.0300   43.0840   51.3790 C   0  0  0  0  0  0  0  0  0  0  0  0
    5.1490   42.0460   50.5070 N   0  0  0  0  0  0  0  0  0  0  0  0
    6.0590   42.0790   49.5000 C   0  0  0  0  0  0  0  0  0  0  0  0
    6.8870   43.1890   49.3460 C   0  0  0  0  0  0  0  0  0  0  0  0
    6.7510   44.2530   50.2400 C   0  0  0  0  0  0  0  0  0  0  0  0
    7.5920   45.3660   50.1120 O   0  0  0  0  0  0  0  0  0  0  0  0
    8.1930   46.0520   51.1780 C   0  0  0  0  0  0  0  0  0  0  0  0
    9.5410   45.8000   51.4610 C   0  0  0  0  0  0  0  0  0  0  0  0
   10.1830   46.4700   52.5090 C   0  0  0  0  0  0  0  0  0  0  0  0
    9.4820   47.4070   53.2720 C   0  0  0  0  0  0  0  0  0  0  0  0
    8.1430   47.6820   52.9840 C   0  0  0  0  0  0  0  0  0  0  0  0
    7.4990   47.0130   51.9380 C   0  0  0  0  0  0  0  0  0  0  0  0
    5.8320   44.1720   51.2410 N   0  0  0  0  0  0  0  0  0  0  0  0
    3.0270   45.0850   53.4500 C   0  0  1  0  0  0  0  0  0  0  0  0
    4.0670   44.9430   54.5770 C   0  0  0  0  0  0  0  0  0  0  0  0
    4.2400   46.2900   55.2970 C   0  0  0  0  0  0  0  0  0  0  0  0
    4.6660   47.3960   54.3150 C   0  0  0  0  0  0  0  0  0  0  0  0
    3.6730   47.5340   53.1520 C   0  0  0  0  0  0  0  0  0  0  0  0
    3.3770   46.2120   52.6080 N   0  0  0  0  0  0  0  0  0  0  0  0
    1.5666   44.4561   50.8112 H   0  0  0  0  0  0  0  0  0  0  0  0
    3.1652   43.9787   50.2783 H   0  0  0  0  0  0  0  0  0  0  0  0
    2.0501   43.2228   52.8007 H   0  0  0  0  0  0  0  0  0  0  0  0
    4.1730   42.2730   53.1560 H   0  0  0  0  0  0  0  0  0  0  0  0
    6.1426   41.2297   48.8059 H   0  0  0  0  0  0  0  0  0  0  0  0
    7.6319   43.2263   48.5375 H   0  0  0  0  0  0  0  0  0  0  0  0
   10.0992   45.0706   50.8557 H   0  0  0  0  0  0  0  0  0  0  0  0
   11.2393   46.2587   52.7317 H   0  0  0  0  0  0  0  0  0  0  0  0
    9.9846   47.9285   54.0999 H   0  0  0  0  0  0  0  0  0  0  0  0
    7.5944   48.4257   53.5806 H   0  0  0  0  0  0  0  0  0  0  0  0
    6.4471   47.2383   51.7084 H   0  0  0  0  0  0  0  0  0  0  0  0
    2.0790   45.1895   53.9981 H   0  0  0  0  0  0  0  0  0  0  0  0
    3.7244   44.1852   55.2970 H   0  0  0  0  0  0  0  0  0  0  0  0
    5.0308   44.6347   54.1457 H   0  0  0  0  0  0  0  0  0  0  0  0
    3.2847   46.5728   55.7633 H   0  0  0  0  0  0  0  0  0  0  0  0
    5.0259   46.1792   56.0586 H   0  0  0  0  0  0  0  0  0  0  0  0
    4.7175   48.3526   54.8556 H   0  0  0  0  0  0  0  0  0  0  0  0
    5.6477   47.1262   53.8984 H   0  0  0  0  0  0  0  0  0  0  0  0
    2.7441   47.9977   53.5155 H   0  0  0  0  0  0  0  0  0  0  0  0
    4.1132   48.1648   52.3657 H   0  0  0  0  0  0  0  0  0  0  0  0
  1  2  2  0
  2  3  1  0
  3  4  1  0
  4  5  1  0
  5  6  1  0
  6  7  2  0
  7  8  1  0
  8  9  2  0
  9 10  1  0
 10 11  1  0
 11 12  1  0
 12 13  2  0
 13 14  1  0
 14 15  2  0
 15 16  1  0
 16 17  2  0
 10 18  2  0
  4 19  1  0
 19 20  1  0
 20 21  1  0
 21 22  1  0
 22 23  1  0
 23 24  1  0
 24  2  1  0
 18  6  1  0
 24 19  1  0
 17 12  1  0
  3 25  1  0
  3 26  1  0
  4 27  1  1
  5 28  1  0
  8 29  1  0
  9 30  1  0
 13 31  1  0
 14 32  1  0
 15 33  1  0
 16 34  1  0
 17 35  1  0
 19 36  1  1
 20 37  1  0
 20 38  1  0
 21 39  1  0
 21 40  1  0
 22 41  1  0
 22 42  1  0
 23 43  1  0
 23 44  1  0
M  END
>  <meeko>  (1) 
{"is_sidechain": [false], "free_energy": -9.405, "intermolecular_energy": -11.604, "internal_energy": -0.7}

$$$$
ligand_6_conformer_5_docked
     RDKit          3D

 44 47  0  0  0  0  0  0  0  0999 V2000
    2.7760   47.6920   52.6920 O   0  0  0  0  0  0  0  0  0  0  0  0
    2.7750   46.5270   52.2120 C   0  0  0  0  0  0  0  0  0  0  0  0
    3.5310   46.1290   51.0020 C   0  0  0  0  0  0  0  0  0  0  0  0
    3.3190   44.5980   50.9440 C   0  0  1  0  0  0  0  0  0  0  0  0
    4.5340   43.9080   51.3950 N   0  0  0  0  0  0  0  0  0  0  0  0
    5.7710   43.9630   50.6730 C   0  0  0  0  0  0  0  0  0  0  0  0
    6.0870   43.0070   49.7560 N   0  0  0  0  0  0  0  0  0  0  0  0
    7.2630   43.0470   49.0800 C   0  0  0  0  0  0  0  0  0  0  0  0
    8.1680   44.0790   49.3180 C   0  0  0  0  0  0  0  0  0  0  0  0
    7.8320   45.0600   50.2530 C   0  0  0  0  0  0  0  0  0  0  0  0
    8.7420   46.0920   50.5200 O   0  0  0  0  0  0  0  0  0  0  0  0
    8.9710   46.6620   51.7810 C   0  0  0  0  0  0  0  0  0  0  0  0
    8.2010   47.7670   52.1660 C   0  0  0  0  0  0  0  0  0  0  0  0
    8.3900   48.3610   53.4180 C   0  0  0  0  0  0  0  0  0  0  0  0
    9.3420   47.8440   54.3010 C   0  0  0  0  0  0  0  0  0  0  0  0
   10.1000   46.7290   53.9360 C   0  0  0  0  0  0  0  0  0  0  0  0
    9.9140   46.1340   52.6830 C   0  0  0  0  0  0  0  0  0  0  0  0
    6.6460   44.9740   50.9160 N   0  0  0  0  0  0  0  0  0  0  0  0
    2.1060   44.3130   51.8780 C   0  0  1  0  0  0  0  0  0  0  0  0
    2.1630   43.0260   52.7190 C   0  0  0  0  0  0  0  0  0  0  0  0
    1.0050   43.0130   53.7300 C   0  0  0  0  0  0  0  0  0  0  0  0
    1.0500   44.2500   54.6450 C   0  0  0  0  0  0  0  0  0  0  0  0
    1.0410   45.5540   53.8350 C   0  0  0  0  0  0  0  0  0  0  0  0
    2.0220   45.4630   52.7580 N   0  0  0  0  0  0  0  0  0  0  0  0
    3.1253   46.6182   50.1042 H   0  0  0  0  0  0  0  0  0  0  0  0
    4.5918   46.4176   51.0404 H   0  0  0  0  0  0  0  0  0  0  0  0
    3.1188   44.2346   49.9252 H   0  0  0  0  0  0  0  0  0  0  0  0
    4.4630   43.2320   52.1900 H   0  0  0  0  0  0  0  0  0  0  0  0
    7.5016   42.2648   48.3443 H   0  0  0  0  0  0  0  0  0  0  0  0
    9.1270   44.1201   48.7807 H   0  0  0  0  0  0  0  0  0  0  0  0
    7.4425   48.1703   51.4789 H   0  0  0  0  0  0  0  0  0  0  0  0
    7.7891   49.2355   53.7079 H   0  0  0  0  0  0  0  0  0  0  0  0
    9.4943   48.3151   55.2833 H   0  0  0  0  0  0  0  0  0  0  0  0
   10.8440   46.3181   54.6342 H   0  0  0  0  0  0  0  0  0  0  0  0
   10.5066   45.2509   52.4021 H   0  0  0  0  0  0  0  0  0  0  0  0
    1.2272   44.1515   51.2363 H   0  0  0  0  0  0  0  0  0  0  0  0
    2.0787   42.1524   52.0559 H   0  0  0  0  0  0  0  0  0  0  0  0
    3.1192   42.9886   53.2615 H   0  0  0  0  0  0  0  0  0  0  0  0
    0.0509   43.0064   53.1825 H   0  0  0  0  0  0  0  0  0  0  0  0
    1.0996   42.1135   54.3560 H   0  0  0  0  0  0  0  0  0  0  0  0
    0.1722   44.2356   55.3078 H   0  0  0  0  0  0  0  0  0  0  0  0
    1.9829   44.2133   55.2268 H   0  0  0  0  0  0  0  0  0  0  0  0
    0.0402   45.7133   53.4072 H   0  0  0  0  0  0  0  0  0  0  0  0
    1.2960   46.3973   54.4937 H   0  0  0  0  0  0  0  0  0  0  0  0
  1  2  2  0
  2  3  1  0
  3  4  1  0
  4  5  1  0
  5  6  1  0
  6  7  2  0
  7  8  1  0
  8  9  2  0
  9 10  1  0
 10 11  1  0
 11 12  1  0
 12 13  2  0
 13 14  1  0
 14 15  2  0
 15 16  1  0
 16 17  2  0
 10 18  2  0
  4 19  1  0
 19 20  1  0
 20 21  1  0
 21 22  1  0
 22 23  1  0
 23 24  1  0
 24  2  1  0
 18  6  1  0
 24 19  1  0
 17 12  1  0
  3 25  1  0
  3 26  1  0
  4 27  1  6
  5 28  1  0
  8 29  1  0
  9 30  1  0
 13 31  1  0
 14 32  1  0
 15 33  1  0
 16 34  1  0
 17 35  1  0
 19 36  1  6
 20 37  1  0
 20 38  1  0
 21 39  1  0
 21 40  1  0
 22 41  1  0
 22 42  1  0
 23 43  1  0
 23 44  1  0
M  END
>  <meeko>  (2) 
{"is_sidechain": [false], "free_energy": -9.303, "intermolecular_energy": -11.626, "internal_energy": -0.552}

$$$$
ligand_6_conformer_5_docked
     RDKit          3D

 44 47  0  0  0  0  0  0  0  0999 V2000
    7.7160   45.0440   50.0720 O   0  0  0  0  0  0  0  0  0  0  0  0
    7.2510   45.7760   50.9860 C   0  0  0  0  0  0  0  0  0  0  0  0
    5.8110   46.0760   51.1530 C   0  0  0  0  0  0  0  0  0  0  0  0
    5.7690   46.8620   52.4850 C   0  0  1  0  0  0  0  0  0  0  0  0
    5.2620   45.9990   53.5580 N   0  0  0  0  0  0  0  0  0  0  0  0
    4.1900   45.0670   53.3660 C   0  0  0  0  0  0  0  0  0  0  0  0
    2.9300   45.3560   53.7930 N   0  0  0  0  0  0  0  0  0  0  0  0
    1.9150   44.4710   53.6240 C   0  0  0  0  0  0  0  0  0  0  0  0
    2.1540   43.2460   53.0050 C   0  0  0  0  0  0  0  0  0  0  0  0
    3.4470   42.9620   52.5620 C   0  0  0  0  0  0  0  0  0  0  0  0
    3.7080   41.7260   51.9580 O   0  0  0  0  0  0  0  0  0  0  0  0
    4.2320   41.5500   50.6680 C   0  0  0  0  0  0  0  0  0  0  0  0
    5.4890   42.0930   50.3770 C   0  0  0  0  0  0  0  0  0  0  0  0
    6.0540   41.9340   49.1070 C   0  0  0  0  0  0  0  0  0  0  0  0
    5.3690   41.2170   48.1220 C   0  0  0  0  0  0  0  0  0  0  0  0
    4.1230   40.6530   48.4090 C   0  0  0  0  0  0  0  0  0  0  0  0
    3.5560   40.8110   49.6780 C   0  0  0  0  0  0  0  0  0  0  0  0
    4.4380   43.8750   52.7620 N   0  0  0  0  0  0  0  0  0  0  0  0
    7.2350   47.3150   52.7430 C   0  0  1  0  0  0  0  0  0  0  0  0
    7.7220   47.2980   54.2030 C   0  0  0  0  0  0  0  0  0  0  0  0
    9.2360   47.5620   54.2500 C   0  0  0  0  0  0  0  0  0  0  0  0
   10.0090   46.5220   53.4190 C   0  0  0  0  0  0  0  0  0  0  0  0
    9.5170   46.4800   51.9650 C   0  0  0  0  0  0  0  0  0  0  0  0
    8.0570   46.4230   51.9480 N   0  0  0  0  0  0  0  0  0  0  0  0
    5.4362   46.6895   50.3204 H   0  0  0  0  0  0  0  0  0  0  0  0
    5.1797   45.1752   51.1622 H   0  0  0  0  0  0  0  0  0  0  0  0
    5.0956   47.7309   52.4460 H   0  0  0  0  0  0  0  0  0  0  0  0
    5.5910   46.1690   54.5370 H   0  0  0  0  0  0  0  0  0  0  0  0
    0.9032   44.7210   53.9759 H   0  0  0  0  0  0  0  0  0  0  0  0
    1.3409   42.5179   52.8682 H   0  0  0  0  0  0  0  0  0  0  0  0
    6.0365   42.6487   51.1525 H   0  0  0  0  0  0  0  0  0  0  0  0
    7.0374   42.3733   48.8837 H   0  0  0  0  0  0  0  0  0  0  0  0
    5.8103   41.0967   47.1216 H   0  0  0  0  0  0  0  0  0  0  0  0
    3.5870   40.0836   47.6354 H   0  0  0  0  0  0  0  0  0  0  0  0
    2.5797   40.3569   49.9031 H   0  0  0  0  0  0  0  0  0  0  0  0
    7.3034   48.3786   52.4710 H   0  0  0  0  0  0  0  0  0  0  0  0
    7.1972   48.0794   54.7722 H   0  0  0  0  0  0  0  0  0  0  0  0
    7.5112   46.3129   54.6448 H   0  0  0  0  0  0  0  0  0  0  0  0
    9.4379   48.5653   53.8467 H   0  0  0  0  0  0  0  0  0  0  0  0
    9.5697   47.4897   55.2957 H   0  0  0  0  0  0  0  0  0  0  0  0
   11.0778   46.7821   53.4266 H   0  0  0  0  0  0  0  0  0  0  0  0
    9.8421   45.5313   53.8670 H   0  0  0  0  0  0  0  0  0  0  0  0
    9.8551   47.3838   51.4369 H   0  0  0  0  0  0  0  0  0  0  0  0
    9.9253   45.5896   51.4646 H   0  0  0  0  0  0  0  0  0  0  0  0
  1  2  2  0
  2  3  1  0
  3  4  1  0
  4  5  1  0
  5  6  1  0
  6  7  2  0
  7  8  1  0
  8  9  2  0
  9 10  1  0
 10 11  1  0
 11 12  1  0
 12 13  2  0
 13 14  1  0
 14 15  2  0
 15 16  1  0
 16 17  2  0
 10 18  2  0
  4 19  1  0
 19 20  1  0
 20 21  1  0
 21 22  1  0
 22 23  1  0
 23 24  1  0
 24  2  1  0
 18  6  1  0
 24 19  1  0
 17 12  1  0
  3 25  1  0
  3 26  1  0
  4 27  1  6
  5 28  1  0
  8 29  1  0
  9 30  1  0
 13 31  1  0
 14 32  1  0
 15 33  1  0
 16 34  1  0
 17 35  1  0
 19 36  1  6
 20 37  1  0
 20 38  1  0
 21 39  1  0
 21 40  1  0
 22 41  1  0
 22 42  1  0
 23 43  1  0
 23 44  1  0
M  END
>  <meeko>  (3) 
{"is_sidechain": [false], "free_energy": -9.001, "intermolecular_energy": -11.43, "internal_energy": -0.375}

$$$$
ligand_6_conformer_5_docked
     RDKit          3D

 44 47  0  0  0  0  0  0  0  0999 V2000
    0.9480   44.9870   57.0490 O   0  0  0  0  0  0  0  0  0  0  0  0
    1.2730   45.0840   55.8350 C   0  0  0  0  0  0  0  0  0  0  0  0
    2.6380   45.4150   55.3670 C   0  0  0  0  0  0  0  0  0  0  0  0
    2.5320   45.2500   53.8330 C   0  0  1  0  0  0  0  0  0  0  0  0
    3.1700   43.9940   53.4210 N   0  0  0  0  0  0  0  0  0  0  0  0
    4.1500   43.9260   52.3770 C   0  0  0  0  0  0  0  0  0  0  0  0
    4.2710   42.8100   51.6060 N   0  0  0  0  0  0  0  0  0  0  0  0
    5.2050   42.7360   50.6240 C   0  0  0  0  0  0  0  0  0  0  0  0
    6.0580   43.8130   50.3920 C   0  0  0  0  0  0  0  0  0  0  0  0
    5.9210   44.9560   51.1810 C   0  0  0  0  0  0  0  0  0  0  0  0
    6.7860   46.0380   50.9750 O   0  0  0  0  0  0  0  0  0  0  0  0
    7.8310   46.4130   51.8330 C   0  0  0  0  0  0  0  0  0  0  0  0
    9.1380   46.0330   51.5010 C   0  0  0  0  0  0  0  0  0  0  0  0
   10.2110   46.3940   52.3230 C   0  0  0  0  0  0  0  0  0  0  0  0
    9.9860   47.1500   53.4760 C   0  0  0  0  0  0  0  0  0  0  0  0
    8.6890   47.5540   53.8040 C   0  0  0  0  0  0  0  0  0  0  0  0
    7.6130   47.1930   52.9850 C   0  0  0  0  0  0  0  0  0  0  0  0
    4.9770   44.9830   52.1620 N   0  0  0  0  0  0  0  0  0  0  0  0
    1.0080   45.2600   53.5210 C   0  0  1  0  0  0  0  0  0  0  0  0
    0.5180   44.3110   52.4120 C   0  0  0  0  0  0  0  0  0  0  0  0
   -1.0190   44.2910   52.3850 C   0  0  0  0  0  0  0  0  0  0  0  0
   -1.5940   43.8590   53.7470 C   0  0  0  0  0  0  0  0  0  0  0  0
   -1.0890   44.7580   54.8850 C   0  0  0  0  0  0  0  0  0  0  0  0
    0.3580   44.9170   54.7720 N   0  0  0  0  0  0  0  0  0  0  0  0
    2.9082   46.4469   55.6355 H   0  0  0  0  0  0  0  0  0  0  0  0
    3.4155   44.7806   55.8176 H   0  0  0  0  0  0  0  0  0  0  0  0
    3.0461   46.0513   53.2820 H   0  0  0  0  0  0  0  0  0  0  0  0
    2.7950   43.0920   53.7980 H   0  0  0  0  0  0  0  0  0  0  0  0
    5.2885   41.8261   50.0115 H   0  0  0  0  0  0  0  0  0  0  0  0
    6.8234   43.7634   49.6035 H   0  0  0  0  0  0  0  0  0  0  0  0
    9.3217   45.4471   50.5883 H   0  0  0  0  0  0  0  0  0  0  0  0
   11.2329   46.0822   52.0611 H   0  0  0  0  0  0  0  0  0  0  0  0
   10.8294   47.4272   54.1255 H   0  0  0  0  0  0  0  0  0  0  0  0
    8.5135   48.1567   54.7073 H   0  0  0  0  0  0  0  0  0  0  0  0
    6.5944   47.5194   53.2418 H   0  0  0  0  0  0  0  0  0  0  0  0
    0.7607   46.2556   53.1241 H   0  0  0  0  0  0  0  0  0  0  0  0
    0.8958   44.6599   51.4396 H   0  0  0  0  0  0  0  0  0  0  0  0
    0.8909   43.2956   52.6120 H   0  0  0  0  0  0  0  0  0  0  0  0
   -1.3868   45.2992   52.1436 H   0  0  0  0  0  0  0  0  0  0  0  0
   -1.3448   43.5669   51.6237 H   0  0  0  0  0  0  0  0  0  0  0  0
   -2.6917   43.9179   53.7059 H   0  0  0  0  0  0  0  0  0  0  0  0
   -1.2630   42.8297   53.9492 H   0  0  0  0  0  0  0  0  0  0  0  0
   -1.5729   45.7435   54.8164 H   0  0  0  0  0  0  0  0  0  0  0  0
   -1.3334   44.2969   55.8534 H   0  0  0  0  0  0  0  0  0  0  0  0
  1  2  2  0
  2  3  1  0
  3  4  1  0
  4  5  1  0
  5  6  1  0
  6  7  2  0
  7  8  1  0
  8  9  2  0
  9 10  1  0
 10 11  1  0
 11 12  1  0
 12 13  2  0
 13 14  1  0
 14 15  2  0
 15 16  1  0
 16 17  2  0
 10 18  2  0
  4 19  1  0
 19 20  1  0
 20 21  1  0
 21 22  1  0
 22 23  1  0
 23 24  1  0
 24  2  1  0
 18  6  1  0
 24 19  1  0
 17 12  1  0
  3 25  1  0
  3 26  1  0
  4 27  1  6
  5 28  1  0
  8 29  1  0
  9 30  1  0
 13 31  1  0
 14 32  1  0
 15 33  1  0
 16 34  1  0
 17 35  1  0
 19 36  1  6
 20 37  1  0
 20 38  1  0
 21 39  1  0
 21 40  1  0
 22 41  1  0
 22 42  1  0
 23 43  1  0
 23 44  1  0
M  END
>  <meeko>  (4) 
{"is_sidechain": [false], "free_energy": -8.85, "intermolecular_energy": -10.986, "internal_energy": -0.634}

$$$$
ligand_6_conformer_5_docked
     RDKit          3D

 44 47  0  0  0  0  0  0  0  0999 V2000
   -1.5490   43.6510   52.0280 O   0  0  0  0  0  0  0  0  0  0  0  0
   -0.3750   43.5540   52.4760 C   0  0  0  0  0  0  0  0  0  0  0  0
    0.7540   42.9670   51.7200 C   0  0  0  0  0  0  0  0  0  0  0  0
    1.9690   43.2350   52.6390 C   0  0  1  0  0  0  0  0  0  0  0  0
    2.7640   44.3470   52.1040 N   0  0  0  0  0  0  0  0  0  0  0  0
    4.0360   44.1590   51.4710 C   0  0  0  0  0  0  0  0  0  0  0  0
    4.3970   42.9420   50.9800 N   0  0  0  0  0  0  0  0  0  0  0  0
    5.6060   42.7560   50.3910 C   0  0  0  0  0  0  0  0  0  0  0  0
    6.4970   43.8210   50.2800 C   0  0  0  0  0  0  0  0  0  0  0  0
    6.1150   45.0670   50.7770 C   0  0  0  0  0  0  0  0  0  0  0  0
    7.0090   46.1420   50.6930 O   0  0  0  0  0  0  0  0  0  0  0  0
    7.9500   46.4910   51.6740 C   0  0  0  0  0  0  0  0  0  0  0  0
    9.2850   46.1150   51.4830 C   0  0  0  0  0  0  0  0  0  0  0  0
   10.2590   46.4500   52.4310 C   0  0  0  0  0  0  0  0  0  0  0  0
    9.9040   47.1760   53.5700 C   0  0  0  0  0  0  0  0  0  0  0  0
    8.5780   47.5740   53.7600 C   0  0  0  0  0  0  0  0  0  0  0  0
    7.6030   47.2400   52.8140 C   0  0  0  0  0  0  0  0  0  0  0  0
    4.8970   45.2060   51.3700 N   0  0  0  0  0  0  0  0  0  0  0  0
    1.3650   43.5670   54.0350 C   0  0  1  0  0  0  0  0  0  0  0  0
    2.0740   44.6570   54.8580 C   0  0  0  0  0  0  0  0  0  0  0  0
    1.2320   45.0060   56.0950 C   0  0  0  0  0  0  0  0  0  0  0  0
   -0.1800   45.4740   55.6940 C   0  0  0  0  0  0  0  0  0  0  0  0
   -0.9000   44.4280   54.8320 C   0  0  0  0  0  0  0  0  0  0  0  0
   -0.0030   43.9710   53.7740 N   0  0  0  0  0  0  0  0  0  0  0  0
    0.6067   41.8880   51.5648 H   0  0  0  0  0  0  0  0  0  0  0  0
    0.8701   43.3961   50.7138 H   0  0  0  0  0  0  0  0  0  0  0  0
    2.6508   42.3744   52.7058 H   0  0  0  0  0  0  0  0  0  0  0  0
    2.4660   45.3270   52.3200 H   0  0  0  0  0  0  0  0  0  0  0  0
    5.8818   41.7649   50.0017 H   0  0  0  0  0  0  0  0  0  0  0  0
    7.4818   43.6822   49.8100 H   0  0  0  0  0  0  0  0  0  0  0  0
    9.5705   45.5525   50.5818 H   0  0  0  0  0  0  0  0  0  0  0  0
   11.3038   46.1415   52.2788 H   0  0  0  0  0  0  0  0  0  0  0  0
   10.6683   47.4346   54.3177 H   0  0  0  0  0  0  0  0  0  0  0  0
    8.3005   48.1507   54.6546 H   0  0  0  0  0  0  0  0  0  0  0  0
    6.5621   47.5637   52.9615 H   0  0  0  0  0  0  0  0  0  0  0  0
    1.4747   42.6705   54.6629 H   0  0  0  0  0  0  0  0  0  0  0  0
    3.0596   44.2889   55.1792 H   0  0  0  0  0  0  0  0  0  0  0  0
    2.1984   45.5569   54.2378 H   0  0  0  0  0  0  0  0  0  0  0  0
    1.1466   44.1147   56.7340 H   0  0  0  0  0  0  0  0  0  0  0  0
    1.7298   45.8246   56.6355 H   0  0  0  0  0  0  0  0  0  0  0  0
   -0.7692   45.6516   56.6057 H   0  0  0  0  0  0  0  0  0  0  0  0
   -0.0811   46.3966   55.1033 H   0  0  0  0  0  0  0  0  0  0  0  0
   -1.1925   43.5734   55.4598 H   0  0  0  0  0  0  0  0  0  0  0  0
   -1.7986   44.8768   54.3836 H   0  0  0  0  0  0  0  0  0  0  0  0
  1  2  2  0
  2  3  1  0
  3  4  1  0
  4  5  1  0
  5  6  1  0
  6  7  2  0
  7  8  1  0
  8  9  2  0
  9 10  1  0
 10 11  1  0
 11 12  1  0
 12 13  2  0
 13 14  1  0
 14 15  2  0
 15 16  1  0
 16 17  2  0
 10 18  2  0
  4 19  1  0
 19 20  1  0
 20 21  1  0
 21 22  1  0
 22 23  1  0
 23 24  1  0
 24  2  1  0
 18  6  1  0
 24 19  1  0
 17 12  1  0
  3 25  1  0
  3 26  1  0
  4 27  1  1
  5 28  1  0
  8 29  1  0
  9 30  1  0
 13 31  1  0
 14 32  1  0
 15 33  1  0
 16 34  1  0
 17 35  1  0
 19 36  1  1
 20 37  1  0
 20 38  1  0
 21 39  1  0
 21 40  1  0
 22 41  1  0
 22 42  1  0
 23 43  1  0
 23 44  1  0
M  END
>  <meeko>  (5) 
{"is_sidechain": [false], "free_energy": -8.541, "intermolecular_energy": -10.594, "internal_energy": -0.644}

$$$$
