ligand_56_conformer_3_docked
     RDKit          3D

 50 53  0  0  0  0  0  0  0  0999 V2000
    5.9060   47.5860   54.6290 O   0  0  0  0  0  0  0  0  0  0  0  0
    5.5550   47.2420   53.4670 C   0  0  0  0  0  0  0  0  0  0  0  0
    6.3790   47.5850   52.3400 N   0  0  0  0  0  0  0  0  0  0  0  0
    7.6470   48.2980   52.4780 C   0  0  0  0  0  0  0  0  0  0  0  0
    8.7790   47.5220   51.7790 C   0  0  2  0  0  0  0  0  0  0  0  0
    8.2770   46.2710   51.2110 N   0  0  0  0  0  0  0  0  0  0  0  0
    9.4090   45.3420   51.1700 C   0  0  0  0  0  0  0  0  0  0  0  0
   10.5910   46.0000   51.8720 C   0  0  0  0  0  0  0  0  0  0  0  0
    9.9840   47.1580   52.6650 C   0  0  2  0  0  0  0  0  0  0  0  0
    9.5870   46.8670   54.1480 C   0  0  0  0  0  0  0  0  0  0  0  0
    9.3730   48.0980   55.0210 C   0  0  0  0  0  0  0  0  0  0  0  0
   10.5400   47.1620   55.3030 C   0  0  0  0  0  0  0  0  0  0  0  0
    4.2880   46.5000   53.2700 C   0  0  0  0  0  0  0  0  0  0  0  0
    3.2360   47.1120   52.5710 C   0  0  0  0  0  0  0  0  0  0  0  0
    2.0220   46.4500   52.3830 C   0  0  0  0  0  0  0  0  0  0  0  0
    1.8270   45.1510   52.8870 C   0  0  0  0  0  0  0  0  0  0  0  0
    0.5660   44.4680   52.6950 N   0  0  0  0  0  0  0  0  0  0  0  0
   -0.7250   45.1400   52.5670 C   0  0  0  0  0  0  0  0  0  0  0  0
   -1.8450   44.0770   52.5430 C   0  0  0  0  0  0  0  0  0  0  0  0
   -1.2990   42.7520   52.0030 C   0  0  0  0  0  0  0  0  0  0  0  0
    0.4120   42.7810   52.4080 S   0  0  0  0  0  0  0  0  0  0  0  0
    0.7010   41.9850   53.6500 O   0  0  0  0  0  0  0  0  0  0  0  0
    1.2620   42.3330   51.2520 O   0  0  0  0  0  0  0  0  0  0  0  0
    2.8810   44.5380   53.5870 C   0  0  0  0  0  0  0  0  0  0  0  0
    4.1020   45.1960   53.7790 C   0  0  0  0  0  0  0  0  0  0  0  0
    5.3860   44.3250   54.6130 Cl  0  0  0  0  0  0  0  0  0  0  0  0
    6.1390   47.2010   51.3980 H   0  0  0  0  0  0  0  0  0  0  0  0
    7.5543   49.2940   52.0204 H   0  0  0  0  0  0  0  0  0  0  0  0
    7.8877   48.3937   53.5471 H   0  0  0  0  0  0  0  0  0  0  0  0
    9.1327   48.2260   51.0113 H   0  0  0  0  0  0  0  0  0  0  0  0
    7.9450   46.4500   50.2330 H   0  0  0  0  0  0  0  0  0  0  0  0
    9.1427   44.4076   51.6858 H   0  0  0  0  0  0  0  0  0  0  0  0
    9.6695   45.1064   50.1276 H   0  0  0  0  0  0  0  0  0  0  0  0
   11.0861   45.2864   52.5470 H   0  0  0  0  0  0  0  0  0  0  0  0
   11.3566   46.3424   51.1602 H   0  0  0  0  0  0  0  0  0  0  0  0
   10.7137   47.9643   52.8304 H   0  0  0  0  0  0  0  0  0  0  0  0
    9.0266   45.9656   53.8591 H   0  0  0  0  0  0  0  0  0  0  0  0
    9.5599   49.1016   54.6113 H   0  0  0  0  0  0  0  0  0  0  0  0
    8.5348   48.4950   55.6125 H   0  0  0  0  0  0  0  0  0  0  0  0
   11.5697   47.4891   55.0966 H   0  0  0  0  0  0  0  0  0  0  0  0
   10.8938   46.6028   56.1817 H   0  0  0  0  0  0  0  0  0  0  0  0
    3.3701   48.1260   52.1663 H   0  0  0  0  0  0  0  0  0  0  0  0
    1.2091   46.9490   51.8351 H   0  0  0  0  0  0  0  0  0  0  0  0
   -0.8757   45.8152   53.4222 H   0  0  0  0  0  0  0  0  0  0  0  0
   -0.7484   45.7256   51.6361 H   0  0  0  0  0  0  0  0  0  0  0  0
   -2.2249   43.9252   53.5641 H   0  0  0  0  0  0  0  0  0  0  0  0
   -2.6587   44.4249   51.8897 H   0  0  0  0  0  0  0  0  0  0  0  0
   -1.7985   41.8998   52.4871 H   0  0  0  0  0  0  0  0  0  0  0  0
   -1.4705   42.6390   50.9223 H   0  0  0  0  0  0  0  0  0  0  0  0
    2.7441   43.5240   53.9908 H   0  0  0  0  0  0  0  0  0  0  0  0
  1  2  2  0
  2  3  1  0
  3  4  1  0
  4  5  1  0
  5  6  1  0
  6  7  1  0
  7  8  1  0
  8  9  1  0
  9 10  1  0
 10 11  1  0
 11 12  1  0
  2 13  1  0
 13 14  2  0
 14 15  1  0
 15 16  2  0
 16 17  1  0
 17 18  1  0
 18 19  1  0
 19 20  1  0
 20 21  1  0
 21 22  2  0
 21 23  2  0
 16 24  1  0
 24 25  2  0
 25 26  1  0
  9  5  1  0
 12 10  1  0
 25 13  1  0
 21 17  1  0
  3 27  1  0
  4 28  1  0
  4 29  1  0
  5 30  1  6
  6 31  1  0
  7 32  1  0
  7 33  1  0
  8 34  1  0
  8 35  1  0
  9 36  1  1
 10 37  1  0
 11 38  1  0
 11 39  1  0
 12 40  1  0
 12 41  1  0
 14 42  1  0
 15 43  1  0
 18 44  1  0
 18 45  1  0
 19 46  1  0
 19 47  1  0
 20 48  1  0
 20 49  1  0
 24 50  1  0
M  END
>  <meeko>  (1) 
{"is_sidechain": [false], "free_energy": -8.703, "intermolecular_energy": -11.247, "internal_energy": -0.46}

$$$$
ligand_56_conformer_3_docked
     RDKit          3D

 50 53  0  0  0  0  0  0  0  0999 V2000
    7.8820   42.9190   49.4100 O   0  0  0  0  0  0  0  0  0  0  0  0
    6.6380   43.1250   49.4330 C   0  0  0  0  0  0  0  0  0  0  0  0
    6.1150   44.2730   50.1230 N   0  0  0  0  0  0  0  0  0  0  0  0
    6.9730   45.2540   50.7860 C   0  0  0  0  0  0  0  0  0  0  0  0
    6.4420   45.5640   52.1970 C   0  0  2  0  0  0  0  0  0  0  0  0
    5.4080   46.5980   52.1480 N   0  0  0  0  0  0  0  0  0  0  0  0
    5.4310   47.2790   53.4450 C   0  0  0  0  0  0  0  0  0  0  0  0
    6.6120   46.7430   54.2450 C   0  0  0  0  0  0  0  0  0  0  0  0
    7.4950   46.0350   53.2170 C   0  0  2  0  0  0  0  0  0  0  0  0
    8.6400   46.8790   52.5690 C   0  0  0  0  0  0  0  0  0  0  0  0
    9.9280   46.1170   52.2770 C   0  0  0  0  0  0  0  0  0  0  0  0
    9.9170   47.2130   53.3340 C   0  0  0  0  0  0  0  0  0  0  0  0
    5.7220   42.1740   48.7610 C   0  0  0  0  0  0  0  0  0  0  0  0
    5.8030   42.0120   47.3690 C   0  0  0  0  0  0  0  0  0  0  0  0
    4.9440   41.1380   46.7010 C   0  0  0  0  0  0  0  0  0  0  0  0
    3.9800   40.3970   47.4080 C   0  0  0  0  0  0  0  0  0  0  0  0
    3.0880   39.4950   46.7120 N   0  0  0  0  0  0  0  0  0  0  0  0
    2.7600   38.1450   47.1660 C   0  0  0  0  0  0  0  0  0  0  0  0
    1.9170   37.4420   46.0800 C   0  0  0  0  0  0  0  0  0  0  0  0
    1.1540   38.4800   45.2520 C   0  0  0  0  0  0  0  0  0  0  0  0
    2.1410   39.9330   45.3470 S   0  0  0  0  0  0  0  0  0  0  0  0
    2.9940   40.1030   44.1200 O   0  0  0  0  0  0  0  0  0  0  0  0
    1.3060   41.1540   45.6160 O   0  0  0  0  0  0  0  0  0  0  0  0
    3.9000   40.5590   48.8030 C   0  0  0  0  0  0  0  0  0  0  0  0
    4.7590   41.4330   49.4800 C   0  0  0  0  0  0  0  0  0  0  0  0
    4.6270   41.5230   51.2340 Cl  0  0  0  0  0  0  0  0  0  0  0  0
    5.0970   44.4960   50.0420 H   0  0  0  0  0  0  0  0  0  0  0  0
    7.9932   44.8499   50.8633 H   0  0  0  0  0  0  0  0  0  0  0  0
    6.9778   46.1815   50.1946 H   0  0  0  0  0  0  0  0  0  0  0  0
    6.0564   44.5931   52.5415 H   0  0  0  0  0  0  0  0  0  0  0  0
    4.4750   46.1400   52.0180 H   0  0  0  0  0  0  0  0  0  0  0  0
    5.5448   48.3627   53.2943 H   0  0  0  0  0  0  0  0  0  0  0  0
    4.4913   47.0954   53.9866 H   0  0  0  0  0  0  0  0  0  0  0  0
    7.1607   47.5672   54.7242 H   0  0  0  0  0  0  0  0  0  0  0  0
    6.2927   46.0671   55.0520 H   0  0  0  0  0  0  0  0  0  0  0  0
    8.0984   45.2396   53.6787 H   0  0  0  0  0  0  0  0  0  0  0  0
    7.9194   47.5021   52.0190 H   0  0  0  0  0  0  0  0  0  0  0  0
   10.0239   45.0635   52.5784 H   0  0  0  0  0  0  0  0  0  0  0  0
   10.5231   45.9133   51.3746 H   0  0  0  0  0  0  0  0  0  0  0  0
   10.0047   46.9510   54.3988 H   0  0  0  0  0  0  0  0  0  0  0  0
   10.5005   48.1285   53.5111 H   0  0  0  0  0  0  0  0  0  0  0  0
    6.5520   42.5804   46.7981 H   0  0  0  0  0  0  0  0  0  0  0  0
    5.0218   41.0275   45.6093 H   0  0  0  0  0  0  0  0  0  0  0  0
    3.6868   37.5782   47.3382 H   0  0  0  0  0  0  0  0  0  0  0  0
    2.1893   38.1964   48.1050 H   0  0  0  0  0  0  0  0  0  0  0  0
    2.5819   36.8667   45.4190 H   0  0  0  0  0  0  0  0  0  0  0  0
    1.1959   36.7674   46.5646 H   0  0  0  0  0  0  0  0  0  0  0  0
    1.0526   38.1466   44.2087 H   0  0  0  0  0  0  0  0  0  0  0  0
    0.1324   38.6436   45.6257 H   0  0  0  0  0  0  0  0  0  0  0  0
    3.1500   39.9895   49.3715 H   0  0  0  0  0  0  0  0  0  0  0  0
  1  2  2  0
  2  3  1  0
  3  4  1  0
  4  5  1  0
  5  6  1  0
  6  7  1  0
  7  8  1  0
  8  9  1  0
  9 10  1  0
 10 11  1  0
 11 12  1  0
  2 13  1  0
 13 14  2  0
 14 15  1  0
 15 16  2  0
 16 17  1  0
 17 18  1  0
 18 19  1  0
 19 20  1  0
 20 21  1  0
 21 22  2  0
 21 23  2  0
 16 24  1  0
 24 25  2  0
 25 26  1  0
  9  5  1  0
 12 10  1  0
 25 13  1  0
 21 17  1  0
  3 27  1  0
  4 28  1  0
  4 29  1  0
  5 30  1  1
  6 31  1  0
  7 32  1  0
  7 33  1  0
  8 34  1  0
  8 35  1  0
  9 36  1  1
 10 37  1  0
 11 38  1  0
 11 39  1  0
 12 40  1  0
 12 41  1  0
 14 42  1  0
 15 43  1  0
 18 44  1  0
 18 45  1  0
 19 46  1  0
 19 47  1  0
 20 48  1  0
 20 49  1  0
 24 50  1  0
M  END
>  <meeko>  (2) 
{"is_sidechain": [false], "free_energy": -8.492, "intermolecular_energy": -11.003, "internal_energy": -0.431}

$$$$
ligand_56_conformer_3_docked
     RDKit          3D

 50 53  0  0  0  0  0  0  0  0999 V2000
    6.6080   41.3490   50.0120 O   0  0  0  0  0  0  0  0  0  0  0  0
    6.1070   42.1400   49.1660 C   0  0  0  0  0  0  0  0  0  0  0  0
    6.2770   43.5580   49.3250 N   0  0  0  0  0  0  0  0  0  0  0  0
    7.0440   44.1430   50.4230 C   0  0  0  0  0  0  0  0  0  0  0  0
    6.0990   44.7870   51.4550 C   0  0  2  0  0  0  0  0  0  0  0  0
    4.9110   45.3370   50.8000 N   0  0  0  0  0  0  0  0  0  0  0  0
    4.4330   46.4330   51.6460 C   0  0  0  0  0  0  0  0  0  0  0  0
    5.4470   46.6500   52.7640 C   0  0  0  0  0  0  0  0  0  0  0  0
    6.7070   45.9220   52.2990 C   0  0  2  0  0  0  0  0  0  0  0  0
    7.7650   46.7670   51.5180 C   0  0  0  0  0  0  0  0  0  0  0  0
    9.1700   46.7640   52.1080 C   0  0  0  0  0  0  0  0  0  0  0  0
    8.3520   48.0480   52.1010 C   0  0  0  0  0  0  0  0  0  0  0  0
    5.3360   41.6010   48.0220 C   0  0  0  0  0  0  0  0  0  0  0  0
    5.7880   41.8430   46.7160 C   0  0  0  0  0  0  0  0  0  0  0  0
    5.0770   41.3660   45.6130 C   0  0  0  0  0  0  0  0  0  0  0  0
    3.8920   40.6280   45.7870 C   0  0  0  0  0  0  0  0  0  0  0  0
    3.1550   40.1390   44.6430 N   0  0  0  0  0  0  0  0  0  0  0  0
    3.6930   39.2140   43.6480 C   0  0  0  0  0  0  0  0  0  0  0  0
    2.6720   39.0600   42.5000 C   0  0  0  0  0  0  0  0  0  0  0  0
    1.2560   39.3290   43.0180 C   0  0  0  0  0  0  0  0  0  0  0  0
    1.4820   40.4250   44.3750 S   0  0  0  0  0  0  0  0  0  0  0  0
    1.2270   41.8540   43.9810 O   0  0  0  0  0  0  0  0  0  0  0  0
    0.6500   40.0190   45.5590 O   0  0  0  0  0  0  0  0  0  0  0  0
    3.4400   40.3840   47.0970 C   0  0  0  0  0  0  0  0  0  0  0  0
    4.1490   40.8600   48.2070 C   0  0  0  0  0  0  0  0  0  0  0  0
    3.5400   40.4510   49.8090 Cl  0  0  0  0  0  0  0  0  0  0  0  0
    5.9560   44.1980   48.5630 H   0  0  0  0  0  0  0  0  0  0  0  0
    7.6334   43.3545   50.9138 H   0  0  0  0  0  0  0  0  0  0  0  0
    7.7118   44.9179   50.0185 H   0  0  0  0  0  0  0  0  0  0  0  0
    5.8635   43.9558   52.1359 H   0  0  0  0  0  0  0  0  0  0  0  0
    4.1740   44.5930   50.7530 H   0  0  0  0  0  0  0  0  0  0  0  0
    4.3370   47.3508   51.0473 H   0  0  0  0  0  0  0  0  0  0  0  0
    3.4486   46.1843   52.0693 H   0  0  0  0  0  0  0  0  0  0  0  0
    5.6482   47.7227   52.9011 H   0  0  0  0  0  0  0  0  0  0  0  0
    5.0839   46.2724   53.7313 H   0  0  0  0  0  0  0  0  0  0  0  0
    7.3276   45.6020   53.1490 H   0  0  0  0  0  0  0  0  0  0  0  0
    7.2863   46.5410   50.5538 H   0  0  0  0  0  0  0  0  0  0  0  0
    9.3669   46.2427   53.0564 H   0  0  0  0  0  0  0  0  0  0  0  0
   10.1662   46.4749   51.7419 H   0  0  0  0  0  0  0  0  0  0  0  0
    7.9578   48.4541   53.0442 H   0  0  0  0  0  0  0  0  0  0  0  0
    8.5123   49.0703   51.7278 H   0  0  0  0  0  0  0  0  0  0  0  0
    6.7140   42.4156   46.5591 H   0  0  0  0  0  0  0  0  0  0  0  0
    5.4473   41.5694   44.5974 H   0  0  0  0  0  0  0  0  0  0  0  0
    4.6387   39.6101   43.2496 H   0  0  0  0  0  0  0  0  0  0  0  0
    3.8790   38.2348   44.1134 H   0  0  0  0  0  0  0  0  0  0  0  0
    2.9104   39.7784   41.7018 H   0  0  0  0  0  0  0  0  0  0  0  0
    2.7235   38.0341   42.1065 H   0  0  0  0  0  0  0  0  0  0  0  0
    0.6396   39.7990   42.2375 H   0  0  0  0  0  0  0  0  0  0  0  0
    0.7356   38.4049   43.3098 H   0  0  0  0  0  0  0  0  0  0  0  0
    2.5145   39.8099   47.2518 H   0  0  0  0  0  0  0  0  0  0  0  0
  1  2  2  0
  2  3  1  0
  3  4  1  0
  4  5  1  0
  5  6  1  0
  6  7  1  0
  7  8  1  0
  8  9  1  0
  9 10  1  0
 10 11  1  0
 11 12  1  0
  2 13  1  0
 13 14  2  0
 14 15  1  0
 15 16  2  0
 16 17  1  0
 17 18  1  0
 18 19  1  0
 19 20  1  0
 20 21  1  0
 21 22  2  0
 21 23  2  0
 16 24  1  0
 24 25  2  0
 25 26  1  0
  9  5  1  0
 12 10  1  0
 25 13  1  0
 21 17  1  0
  3 27  1  0
  4 28  1  0
  4 29  1  0
  5 30  1  1
  6 31  1  0
  7 32  1  0
  7 33  1  0
  8 34  1  0
  8 35  1  0
  9 36  1  1
 10 37  1  0
 11 38  1  0
 11 39  1  0
 12 40  1  0
 12 41  1  0
 14 42  1  0
 15 43  1  0
 18 44  1  0
 18 45  1  0
 19 46  1  0
 19 47  1  0
 20 48  1  0
 20 49  1  0
 24 50  1  0
M  END
>  <meeko>  (3) 
{"is_sidechain": [false], "free_energy": -7.719, "intermolecular_energy": -10.067, "internal_energy": -0.368}

$$$$
ligand_56_conformer_3_docked
     RDKit          3D

 50 53  0  0  0  0  0  0  0  0999 V2000
    1.6490   44.7200   54.0340 O   0  0  0  0  0  0  0  0  0  0  0  0
    2.4830   45.1790   54.8620 C   0  0  0  0  0  0  0  0  0  0  0  0
    2.0870   45.4020   56.2260 N   0  0  0  0  0  0  0  0  0  0  0  0
    0.7480   45.0880   56.7210 C   0  0  0  0  0  0  0  0  0  0  0  0
   -0.0610   46.3800   56.9400 C   0  0  2  0  0  0  0  0  0  0  0  0
    0.1680   46.9150   58.2820 N   0  0  0  0  0  0  0  0  0  0  0  0
   -1.0320   47.6740   58.6440 C   0  0  0  0  0  0  0  0  0  0  0  0
   -2.0740   47.4660   57.5510 C   0  0  0  0  0  0  0  0  0  0  0  0
   -1.5850   46.2500   56.7660 C   0  0  2  0  0  0  0  0  0  0  0  0
   -2.1350   44.8550   57.2070 C   0  0  0  0  0  0  0  0  0  0  0  0
   -2.5380   43.9230   56.0710 C   0  0  0  0  0  0  0  0  0  0  0  0
   -3.6000   44.4760   57.0120 C   0  0  0  0  0  0  0  0  0  0  0  0
    3.8600   45.4970   54.4200 C   0  0  0  0  0  0  0  0  0  0  0  0
    4.9470   44.8980   55.0760 C   0  0  0  0  0  0  0  0  0  0  0  0
    6.2580   45.1890   54.6970 C   0  0  0  0  0  0  0  0  0  0  0  0
    6.5210   46.0870   53.6470 C   0  0  0  0  0  0  0  0  0  0  0  0
    7.8820   46.3910   53.2600 N   0  0  0  0  0  0  0  0  0  0  0  0
    9.0250   46.3560   54.1690 C   0  0  0  0  0  0  0  0  0  0  0  0
   10.2690   46.8980   53.4320 C   0  0  0  0  0  0  0  0  0  0  0  0
   10.1260   46.6730   51.9240 C   0  0  0  0  0  0  0  0  0  0  0  0
    8.3900   46.6620   51.6420 S   0  0  0  0  0  0  0  0  0  0  0  0
    7.9050   47.9900   51.1300 O   0  0  0  0  0  0  0  0  0  0  0  0
    7.9830   45.5360   50.7330 O   0  0  0  0  0  0  0  0  0  0  0  0
    5.4320   46.6870   52.9900 C   0  0  0  0  0  0  0  0  0  0  0  0
    4.1140   46.4000   53.3640 C   0  0  0  0  0  0  0  0  0  0  0  0
    2.8140   47.1500   52.4420 Cl  0  0  0  0  0  0  0  0  0  0  0  0
    2.8110   45.6760   56.9280 H   0  0  0  0  0  0  0  0  0  0  0  0
    0.2289   44.4558   55.9856 H   0  0  0  0  0  0  0  0  0  0  0  0
    0.8380   44.5569   57.6801 H   0  0  0  0  0  0  0  0  0  0  0  0
    0.3078   47.0475   56.1473 H   0  0  0  0  0  0  0  0  0  0  0  0
    0.9900   47.5650   58.2540 H   0  0  0  0  0  0  0  0  0  0  0  0
   -1.4245   47.3136   59.6063 H   0  0  0  0  0  0  0  0  0  0  0  0
   -0.7910   48.7429   58.7411 H   0  0  0  0  0  0  0  0  0  0  0  0
   -3.0627   47.2700   57.9915 H   0  0  0  0  0  0  0  0  0  0  0  0
   -2.1851   48.3539   56.9112 H   0  0  0  0  0  0  0  0  0  0  0  0
   -1.9482   46.2638   55.7278 H   0  0  0  0  0  0  0  0  0  0  0  0
   -1.4722   44.8304   58.0845 H   0  0  0  0  0  0  0  0  0  0  0  0
   -2.4903   44.2733   55.0294 H   0  0  0  0  0  0  0  0  0  0  0  0
   -2.2349   42.9165   55.7468 H   0  0  0  0  0  0  0  0  0  0  0  0
   -4.3188   45.2260   56.6503 H   0  0  0  0  0  0  0  0  0  0  0  0
   -4.3809   44.0350   57.6489 H   0  0  0  0  0  0  0  0  0  0  0  0
    4.7631   44.1910   55.8984 H   0  0  0  0  0  0  0  0  0  0  0  0
    7.0956   44.7105   55.2256 H   0  0  0  0  0  0  0  0  0  0  0  0
    8.8158   46.9818   55.0491 H   0  0  0  0  0  0  0  0  0  0  0  0
    9.2080   45.3221   54.4970 H   0  0  0  0  0  0  0  0  0  0  0  0
   10.3696   47.9751   53.6313 H   0  0  0  0  0  0  0  0  0  0  0  0
   11.1617   46.3660   53.7926 H   0  0  0  0  0  0  0  0  0  0  0  0
   10.6059   47.4880   51.3622 H   0  0  0  0  0  0  0  0  0  0  0  0
   10.6091   45.7420   51.5927 H   0  0  0  0  0  0  0  0  0  0  0  0
    5.6191   47.3939   52.1682 H   0  0  0  0  0  0  0  0  0  0  0  0
  1  2  2  0
  2  3  1  0
  3  4  1  0
  4  5  1  0
  5  6  1  0
  6  7  1  0
  7  8  1  0
  8  9  1  0
  9 10  1  0
 10 11  1  0
 11 12  1  0
  2 13  1  0
 13 14  2  0
 14 15  1  0
 15 16  2  0
 16 17  1  0
 17 18  1  0
 18 19  1  0
 19 20  1  0
 20 21  1  0
 21 22  2  0
 21 23  2  0
 16 24  1  0
 24 25  2  0
 25 26  1  0
  9  5  1  0
 12 10  1  0
 25 13  1  0
 21 17  1  0
  3 27  1  0
  4 28  1  0
  4 29  1  0
  5 30  1  6
  6 31  1  0
  7 32  1  0
  7 33  1  0
  8 34  1  0
  8 35  1  0
  9 36  1  6
 10 37  1  0
 11 38  1  0
 11 39  1  0
 12 40  1  0
 12 41  1  0
 14 42  1  0
 15 43  1  0
 18 44  1  0
 18 45  1  0
 19 46  1  0
 19 47  1  0
 20 48  1  0
 20 49  1  0
 24 50  1  0
M  END
>  <meeko>  (4) 
{"is_sidechain": [false], "free_energy": -7.679, "intermolecular_energy": -9.974, "internal_energy": -0.41}

$$$$
ligand_56_conformer_3_docked
     RDKit          3D

 50 53  0  0  0  0  0  0  0  0999 V2000
    3.5190   40.3910   50.3600 O   0  0  0  0  0  0  0  0  0  0  0  0
    4.1830   41.1070   49.5620 C   0  0  0  0  0  0  0  0  0  0  0  0
    4.2320   40.7660   48.1660 N   0  0  0  0  0  0  0  0  0  0  0  0
    3.5100   39.6250   47.6070 C   0  0  0  0  0  0  0  0  0  0  0  0
    3.1930   39.8670   46.1200 C   0  0  2  0  0  0  0  0  0  0  0  0
    2.4460   41.1130   45.9440 N   0  0  0  0  0  0  0  0  0  0  0  0
    1.6500   40.9590   44.7230 C   0  0  0  0  0  0  0  0  0  0  0  0
    1.8050   39.5250   44.2310 C   0  0  0  0  0  0  0  0  0  0  0  0
    2.3820   38.7600   45.4220 C   0  0  2  0  0  0  0  0  0  0  0  0
    1.3600   38.0570   46.3730 C   0  0  0  0  0  0  0  0  0  0  0  0
    1.6770   36.6060   46.7150 C   0  0  0  0  0  0  0  0  0  0  0  0
    0.4480   36.9380   45.8800 C   0  0  0  0  0  0  0  0  0  0  0  0
    4.9190   42.2880   50.0710 C   0  0  0  0  0  0  0  0  0  0  0  0
    6.1150   42.6720   49.4460 C   0  0  0  0  0  0  0  0  0  0  0  0
    6.8440   43.7680   49.9100 C   0  0  0  0  0  0  0  0  0  0  0  0
    6.3930   44.5150   51.0140 C   0  0  0  0  0  0  0  0  0  0  0  0
    7.1520   45.6480   51.4960 N   0  0  0  0  0  0  0  0  0  0  0  0
    8.3420   46.1840   50.8380 C   0  0  0  0  0  0  0  0  0  0  0  0
    8.9630   47.2770   51.7360 C   0  0  0  0  0  0  0  0  0  0  0  0
    7.8820   47.9100   52.6170 C   0  0  0  0  0  0  0  0  0  0  0  0
    6.6740   46.6460   52.8100 S   0  0  0  0  0  0  0  0  0  0  0  0
    6.8260   45.9320   54.1250 O   0  0  0  0  0  0  0  0  0  0  0  0
    5.2800   47.1790   52.6270 O   0  0  0  0  0  0  0  0  0  0  0  0
    5.1930   44.1300   51.6400 C   0  0  0  0  0  0  0  0  0  0  0  0
    4.4570   43.0320   51.1790 C   0  0  0  0  0  0  0  0  0  0  0  0
    2.9350   42.6640   51.9860 Cl  0  0  0  0  0  0  0  0  0  0  0  0
    4.6900   41.4250   47.4970 H   0  0  0  0  0  0  0  0  0  0  0  0
    4.1299   38.7214   47.7031 H   0  0  0  0  0  0  0  0  0  0  0  0
    2.5660   39.4959   48.1567 H   0  0  0  0  0  0  0  0  0  0  0  0
    4.1875   39.8966   45.6508 H   0  0  0  0  0  0  0  0  0  0  0  0
    3.1250   41.9010   45.8130 H   0  0  0  0  0  0  0  0  0  0  0  0
    0.5916   41.1659   44.9399 H   0  0  0  0  0  0  0  0  0  0  0  0
    1.9955   41.6643   43.9528 H   0  0  0  0  0  0  0  0  0  0  0  0
    0.8296   39.1084   43.9394 H   0  0  0  0  0  0  0  0  0  0  0  0
    2.4524   39.4595   43.3441 H   0  0  0  0  0  0  0  0  0  0  0  0
    2.9585   37.8806   45.0991 H   0  0  0  0  0  0  0  0  0  0  0  0
    1.1595   38.9957   46.9102 H   0  0  0  0  0  0  0  0  0  0  0  0
    2.5397   36.1073   46.2492 H   0  0  0  0  0  0  0  0  0  0  0  0
    1.8567   36.0483   47.6459 H   0  0  0  0  0  0  0  0  0  0  0  0
    0.4231   36.6795   44.8111 H   0  0  0  0  0  0  0  0  0  0  0  0
   -0.6273   36.7198   45.9579 H   0  0  0  0  0  0  0  0  0  0  0  0
    6.4826   42.1023   48.5798 H   0  0  0  0  0  0  0  0  0  0  0  0
    7.7808   44.0508   49.4075 H   0  0  0  0  0  0  0  0  0  0  0  0
    9.0722   45.3764   50.6813 H   0  0  0  0  0  0  0  0  0  0  0  0
    8.0663   46.6149   49.8642 H   0  0  0  0  0  0  0  0  0  0  0  0
    9.7362   46.8266   52.3757 H   0  0  0  0  0  0  0  0  0  0  0  0
    9.4105   48.0548   51.0998 H   0  0  0  0  0  0  0  0  0  0  0  0
    8.2977   48.2026   53.5925 H   0  0  0  0  0  0  0  0  0  0  0  0
    7.4627   48.8245   52.1721 H   0  0  0  0  0  0  0  0  0  0  0  0
    4.8272   44.7013   52.5059 H   0  0  0  0  0  0  0  0  0  0  0  0
  1  2  2  0
  2  3  1  0
  3  4  1  0
  4  5  1  0
  5  6  1  0
  6  7  1  0
  7  8  1  0
  8  9  1  0
  9 10  1  0
 10 11  1  0
 11 12  1  0
  2 13  1  0
 13 14  2  0
 14 15  1  0
 15 16  2  0
 16 17  1  0
 17 18  1  0
 18 19  1  0
 19 20  1  0
 20 21  1  0
 21 22  2  0
 21 23  2  0
 16 24  1  0
 24 25  2  0
 25 26  1  0
  9  5  1  0
 12 10  1  0
 25 13  1  0
 21 17  1  0
  3 27  1  0
  4 28  1  0
  4 29  1  0
  5 30  1  6
  6 31  1  0
  7 32  1  0
  7 33  1  0
  8 34  1  0
  8 35  1  0
  9 36  1  6
 10 37  1  0
 11 38  1  0
 11 39  1  0
 12 40  1  0
 12 41  1  0
 14 42  1  0
 15 43  1  0
 18 44  1  0
 18 45  1  0
 19 46  1  0
 19 47  1  0
 20 48  1  0
 20 49  1  0
 24 50  1  0
M  END
>  <meeko>  (5) 
{"is_sidechain": [false], "free_energy": -7.276, "intermolecular_energy": -9.817, "internal_energy": -0.046}

$$$$
