ligand_46_conformer_5_docked
     RDKit          3D

 53 57  0  0  0  0  0  0  0  0999 V2000
   -0.5060   43.2210   53.0920 O   0  0  0  0  0  0  0  0  0  0  0  0
    0.3750   43.8150   53.7710 C   0  0  0  0  0  0  0  0  0  0  0  0
    1.7480   43.9310   53.2380 C   0  0  0  0  0  0  0  0  0  0  0  0
    2.1640   43.0890   52.1730 C   0  0  0  0  0  0  0  0  0  0  0  0
    3.4660   43.1770   51.6490 C   0  0  0  0  0  0  0  0  0  0  0  0
    4.3330   44.1040   52.2180 C   0  0  0  0  0  0  0  0  0  0  0  0
    5.6470   44.3990   51.9270 C   0  0  0  0  0  0  0  0  0  0  0  0
    6.0070   45.3970   52.8360 C   0  0  0  0  0  0  0  0  0  0  0  0
    7.3430   46.0420   52.9220 C   0  0  0  0  0  0  0  0  0  0  0  0
    7.7860   46.6120   54.1310 C   0  0  0  0  0  0  0  0  0  0  0  0
    9.0450   47.2170   54.2100 C   0  0  0  0  0  0  0  0  0  0  0  0
    9.8740   47.2590   53.0880 C   0  0  0  0  0  0  0  0  0  0  0  0
    9.4470   46.6970   51.8840 C   0  0  0  0  0  0  0  0  0  0  0  0
    8.1900   46.0910   51.7980 C   0  0  0  0  0  0  0  0  0  0  0  0
    4.9620   45.7000   53.6470 N   0  0  0  0  0  0  0  0  0  0  0  0
    3.9510   44.9070   53.2570 C   0  0  0  0  0  0  0  0  0  0  0  0
    2.6670   44.8490   53.7960 C   0  0  0  0  0  0  0  0  0  0  0  0
    0.0030   44.4020   55.0210 N   0  0  0  0  0  0  0  0  0  0  0  0
    0.5620   45.3320   56.0240 C   0  0  0  0  0  0  0  0  0  0  0  0
   -0.6940   45.4580   56.8380 C   0  0  0  0  0  0  0  0  0  0  0  0
   -1.3320   46.7860   56.7730 N   0  0  0  0  0  0  0  0  0  0  0  0
   -1.5030   47.3680   58.1180 C   0  0  0  0  0  0  0  0  0  0  0  0
   -0.1330   47.5940   58.7790 C   0  0  0  0  0  0  0  0  0  0  0  0
   -0.2840   48.2900   60.1530 C   0  0  0  0  0  0  0  0  0  0  0  0
   -1.5650   48.8640   60.3570 O   0  0  0  0  0  0  0  0  0  0  0  0
   -1.9420   49.6270   59.2300 C   0  0  0  0  0  0  0  0  0  0  0  0
   -2.2680   48.7100   58.0380 C   0  0  0  0  0  0  0  0  0  0  0  0
   -1.2360   44.5080   55.8140 C   0  0  0  0  0  0  0  0  0  0  0  0
    1.4581   42.3579   51.7521 H   0  0  0  0  0  0  0  0  0  0  0  0
    3.7882   42.5340   50.8167 H   0  0  0  0  0  0  0  0  0  0  0  0
    6.2769   43.9463   51.1471 H   0  0  0  0  0  0  0  0  0  0  0  0
    7.1379   46.5814   55.0192 H   0  0  0  0  0  0  0  0  0  0  0  0
    9.3822   47.6605   55.1585 H   0  0  0  0  0  0  0  0  0  0  0  0
   10.8636   47.7349   53.1526 H   0  0  0  0  0  0  0  0  0  0  0  0
   10.1012   46.7309   51.0003 H   0  0  0  0  0  0  0  0  0  0  0  0
    7.8604   45.6495   50.8459 H   0  0  0  0  0  0  0  0  0  0  0  0
    4.9270   46.4150   54.4080 H   0  0  0  0  0  0  0  0  0  0  0  0
    2.3764   45.5003   54.6335 H   0  0  0  0  0  0  0  0  0  0  0  0
    1.3949   44.8931   56.5929 H   0  0  0  0  0  0  0  0  0  0  0  0
    1.0127   46.2628   55.6492 H   0  0  0  0  0  0  0  0  0  0  0  0
   -0.7299   45.3015   57.9262 H   0  0  0  0  0  0  0  0  0  0  0  0
   -0.7410   47.4290   56.1920 H   0  0  0  0  0  0  0  0  0  0  0  0
   -2.0868   46.6612   58.7260 H   0  0  0  0  0  0  0  0  0  0  0  0
    0.3617   46.6219   58.9214 H   0  0  0  0  0  0  0  0  0  0  0  0
    0.4678   48.2419   58.1239 H   0  0  0  0  0  0  0  0  0  0  0  0
   -0.1062   47.5449   60.9425 H   0  0  0  0  0  0  0  0  0  0  0  0
    0.4477   49.1108   60.1829 H   0  0  0  0  0  0  0  0  0  0  0  0
   -2.8309   50.2250   59.4795 H   0  0  0  0  0  0  0  0  0  0  0  0
   -1.1056   50.2852   58.9521 H   0  0  0  0  0  0  0  0  0  0  0  0
   -3.3485   48.5039   58.0327 H   0  0  0  0  0  0  0  0  0  0  0  0
   -1.9586   49.2249   57.1165 H   0  0  0  0  0  0  0  0  0  0  0  0
   -1.5442   43.5460   56.2494 H   0  0  0  0  0  0  0  0  0  0  0  0
   -2.1463   44.8165   55.2791 H   0  0  0  0  0  0  0  0  0  0  0  0
  1  2  2  0
  2  3  1  0
  3  4  2  0
  4  5  1  0
  5  6  2  0
  6  7  1  0
  7  8  2  0
  8  9  1  0
  9 10  2  0
 10 11  1  0
 11 12  2  0
 12 13  1  0
 13 14  2  0
  8 15  1  0
 15 16  1  0
 16 17  2  0
  2 18  1  0
 18 19  1  0
 19 20  1  0
 20 21  1  0
 21 22  1  0
 22 23  1  0
 23 24  1  0
 24 25  1  0
 25 26  1  0
 26 27  1  0
 20 28  1  0
 17  3  1  0
 28 18  1  0
 16  6  1  0
 27 22  1  0
 14  9  1  0
  4 29  1  0
  5 30  1  0
  7 31  1  0
 10 32  1  0
 11 33  1  0
 12 34  1  0
 13 35  1  0
 14 36  1  0
 15 37  1  0
 17 38  1  0
 19 39  1  0
 19 40  1  0
 20 41  1  0
 21 42  1  0
 22 43  1  0
 23 44  1  0
 23 45  1  0
 24 46  1  0
 24 47  1  0
 26 48  1  0
 26 49  1  0
 27 50  1  0
 27 51  1  0
 28 52  1  0
 28 53  1  0
M  END
>  <meeko>  (1) 
{"is_sidechain": [false], "free_energy": -9.373, "intermolecular_energy": -11.564, "internal_energy": -0.226}

$$$$
ligand_46_conformer_5_docked
     RDKit          3D

 53 57  0  0  0  0  0  0  0  0999 V2000
    1.0220   42.4310   51.4250 O   0  0  0  0  0  0  0  0  0  0  0  0
    1.2250   43.3310   52.2840 C   0  0  0  0  0  0  0  0  0  0  0  0
    2.3690   44.2510   52.1170 C   0  0  0  0  0  0  0  0  0  0  0  0
    2.3050   45.2860   51.1460 C   0  0  0  0  0  0  0  0  0  0  0  0
    3.3810   46.1730   50.9650 C   0  0  0  0  0  0  0  0  0  0  0  0
    4.5100   45.9940   51.7570 C   0  0  0  0  0  0  0  0  0  0  0  0
    5.6990   46.6880   51.7930 C   0  0  0  0  0  0  0  0  0  0  0  0
    6.4680   46.0470   52.7680 C   0  0  0  0  0  0  0  0  0  0  0  0
    7.8470   46.4300   53.1670 C   0  0  0  0  0  0  0  0  0  0  0  0
    8.9380   46.1620   52.3190 C   0  0  0  0  0  0  0  0  0  0  0  0
   10.2350   46.5250   52.6960 C   0  0  0  0  0  0  0  0  0  0  0  0
   10.4580   47.1590   53.9200 C   0  0  0  0  0  0  0  0  0  0  0  0
    9.3840   47.4320   54.7700 C   0  0  0  0  0  0  0  0  0  0  0  0
    8.0850   47.0710   54.3980 C   0  0  0  0  0  0  0  0  0  0  0  0
    5.7810   45.0070   53.3050 N   0  0  0  0  0  0  0  0  0  0  0  0
    4.5920   44.9890   52.6820 C   0  0  0  0  0  0  0  0  0  0  0  0
    3.5420   44.0970   52.8900 C   0  0  0  0  0  0  0  0  0  0  0  0
    0.3080   43.4650   53.3730 N   0  0  0  0  0  0  0  0  0  0  0  0
   -0.0090   44.4250   54.4500 C   0  0  0  0  0  0  0  0  0  0  0  0
   -1.2630   43.7380   54.9090 C   0  0  0  0  0  0  0  0  0  0  0  0
   -2.5050   44.4840   54.6330 N   0  0  0  0  0  0  0  0  0  0  0  0
   -3.2040   44.8480   55.8800 C   0  0  0  0  0  0  0  0  0  0  0  0
   -3.0710   43.7160   56.9140 C   0  0  0  0  0  0  0  0  0  0  0  0
   -3.7180   44.1140   58.2630 C   0  0  0  0  0  0  0  0  0  0  0  0
   -3.9790   45.5040   58.3750 O   0  0  0  0  0  0  0  0  0  0  0  0
   -2.8420   46.2460   57.9890 C   0  0  0  0  0  0  0  0  0  0  0  0
   -2.6260   46.1570   56.4670 C   0  0  0  0  0  0  0  0  0  0  0  0
   -0.9160   42.7720   53.8190 C   0  0  0  0  0  0  0  0  0  0  0  0
    1.4018   45.3950   50.5276 H   0  0  0  0  0  0  0  0  0  0  0  0
    3.3313   46.9820   50.2213 H   0  0  0  0  0  0  0  0  0  0  0  0
    5.9825   47.5597   51.1849 H   0  0  0  0  0  0  0  0  0  0  0  0
    8.7693   45.6636   51.3530 H   0  0  0  0  0  0  0  0  0  0  0  0
   11.0813   46.3106   52.0268 H   0  0  0  0  0  0  0  0  0  0  0  0
   11.4790   47.4433   54.2146 H   0  0  0  0  0  0  0  0  0  0  0  0
    9.5601   47.9319   55.7339 H   0  0  0  0  0  0  0  0  0  0  0  0
    7.2434   47.2893   55.0718 H   0  0  0  0  0  0  0  0  0  0  0  0
    6.0890   44.3580   54.0630 H   0  0  0  0  0  0  0  0  0  0  0  0
    3.6240   43.2935   53.6368 H   0  0  0  0  0  0  0  0  0  0  0  0
    0.7661   44.4600   55.2297 H   0  0  0  0  0  0  0  0  0  0  0  0
   -0.0920   45.4852   54.1687 H   0  0  0  0  0  0  0  0  0  0  0  0
   -1.4559   43.4649   55.9570 H   0  0  0  0  0  0  0  0  0  0  0  0
   -2.2740   45.3570   54.0990 H   0  0  0  0  0  0  0  0  0  0  0  0
   -4.2675   45.0028   55.6453 H   0  0  0  0  0  0  0  0  0  0  0  0
   -3.5712   42.8158   56.5274 H   0  0  0  0  0  0  0  0  0  0  0  0
   -2.0016   43.5216   57.0834 H   0  0  0  0  0  0  0  0  0  0  0  0
   -4.6691   43.5713   58.3670 H   0  0  0  0  0  0  0  0  0  0  0  0
   -3.0014   43.8535   59.0559 H   0  0  0  0  0  0  0  0  0  0  0  0
   -2.9846   47.2992   58.2727 H   0  0  0  0  0  0  0  0  0  0  0  0
   -1.9590   45.8306   58.4968 H   0  0  0  0  0  0  0  0  0  0  0  0
   -3.1229   47.0126   55.9863 H   0  0  0  0  0  0  0  0  0  0  0  0
   -1.5431   46.1691   56.2742 H   0  0  0  0  0  0  0  0  0  0  0  0
   -0.7153   41.7592   54.1983 H   0  0  0  0  0  0  0  0  0  0  0  0
   -1.6866   42.5803   53.0578 H   0  0  0  0  0  0  0  0  0  0  0  0
  1  2  2  0
  2  3  1  0
  3  4  2  0
  4  5  1  0
  5  6  2  0
  6  7  1  0
  7  8  2  0
  8  9  1  0
  9 10  2  0
 10 11  1  0
 11 12  2  0
 12 13  1  0
 13 14  2  0
  8 15  1  0
 15 16  1  0
 16 17  2  0
  2 18  1  0
 18 19  1  0
 19 20  1  0
 20 21  1  0
 21 22  1  0
 22 23  1  0
 23 24  1  0
 24 25  1  0
 25 26  1  0
 26 27  1  0
 20 28  1  0
 17  3  1  0
 28 18  1  0
 16  6  1  0
 27 22  1  0
 14  9  1  0
  4 29  1  0
  5 30  1  0
  7 31  1  0
 10 32  1  0
 11 33  1  0
 12 34  1  0
 13 35  1  0
 14 36  1  0
 15 37  1  0
 17 38  1  0
 19 39  1  0
 19 40  1  0
 20 41  1  0
 21 42  1  0
 22 43  1  0
 23 44  1  0
 23 45  1  0
 24 46  1  0
 24 47  1  0
 26 48  1  0
 26 49  1  0
 27 50  1  0
 27 51  1  0
 28 52  1  0
 28 53  1  0
M  END
>  <meeko>  (2) 
{"is_sidechain": [false], "free_energy": -8.905, "intermolecular_energy": -10.519, "internal_energy": -0.694}

$$$$
ligand_46_conformer_5_docked
     RDKit          3D

 53 57  0  0  0  0  0  0  0  0999 V2000
    0.2460   41.6900   53.8450 O   0  0  0  0  0  0  0  0  0  0  0  0
    0.4130   42.8020   53.2760 C   0  0  0  0  0  0  0  0  0  0  0  0
    1.5450   43.6620   53.6790 C   0  0  0  0  0  0  0  0  0  0  0  0
    1.4470   44.4500   54.8560 C   0  0  0  0  0  0  0  0  0  0  0  0
    2.5090   45.2790   55.2600 C   0  0  0  0  0  0  0  0  0  0  0  0
    3.6480   45.3100   54.4630 C   0  0  0  0  0  0  0  0  0  0  0  0
    4.8180   46.0240   54.5990 C   0  0  0  0  0  0  0  0  0  0  0  0
    5.5930   45.6710   53.4900 C   0  0  0  0  0  0  0  0  0  0  0  0
    6.9510   46.1920   53.1880 C   0  0  0  0  0  0  0  0  0  0  0  0
    7.4520   46.1630   51.8720 C   0  0  0  0  0  0  0  0  0  0  0  0
    8.7300   46.6560   51.5890 C   0  0  0  0  0  0  0  0  0  0  0  0
    9.5210   47.1810   52.6120 C   0  0  0  0  0  0  0  0  0  0  0  0
    9.0360   47.2160   53.9210 C   0  0  0  0  0  0  0  0  0  0  0  0
    7.7590   46.7260   54.2100 C   0  0  0  0  0  0  0  0  0  0  0  0
    4.9270   44.7820   52.7110 N   0  0  0  0  0  0  0  0  0  0  0  0
    3.7470   44.5700   53.3170 C   0  0  0  0  0  0  0  0  0  0  0  0
    2.7160   43.7350   52.8910 C   0  0  0  0  0  0  0  0  0  0  0  0
   -0.4750   43.1780   52.2200 N   0  0  0  0  0  0  0  0  0  0  0  0
   -0.5720   44.2000   51.1580 C   0  0  0  0  0  0  0  0  0  0  0  0
   -1.7580   43.5940   50.4650 C   0  0  0  0  0  0  0  0  0  0  0  0
   -1.4650   43.0320   49.1320 N   0  0  0  0  0  0  0  0  0  0  0  0
   -2.4940   43.4170   48.1470 C   0  0  0  0  0  0  0  0  0  0  0  0
   -2.8360   44.9100   48.2900 C   0  0  0  0  0  0  0  0  0  0  0  0
   -3.8450   45.3580   47.2050 C   0  0  0  0  0  0  0  0  0  0  0  0
   -3.9760   44.4310   46.1390 O   0  0  0  0  0  0  0  0  0  0  0  0
   -2.7000   44.0390   45.6760 C   0  0  0  0  0  0  0  0  0  0  0  0
   -2.0040   43.1330   46.7080 C   0  0  0  0  0  0  0  0  0  0  0  0
   -1.6460   42.5750   51.5560 C   0  0  0  0  0  0  0  0  0  0  0  0
    0.5284   44.4117   55.4599 H   0  0  0  0  0  0  0  0  0  0  0  0
    2.4407   45.8832   56.1767 H   0  0  0  0  0  0  0  0  0  0  0  0
    5.0852   46.7217   55.4063 H   0  0  0  0  0  0  0  0  0  0  0  0
    6.8340   45.7498   51.0612 H   0  0  0  0  0  0  0  0  0  0  0  0
    9.1124   46.6299   50.5580 H   0  0  0  0  0  0  0  0  0  0  0  0
   10.5262   47.5671   52.3872 H   0  0  0  0  0  0  0  0  0  0  0  0
    9.6602   47.6301   54.7266 H   0  0  0  0  0  0  0  0  0  0  0  0
    7.3828   46.7579   55.2432 H   0  0  0  0  0  0  0  0  0  0  0  0
    5.2570   44.3280   51.8300 H   0  0  0  0  0  0  0  0  0  0  0  0
    2.8110   43.1480   51.9656 H   0  0  0  0  0  0  0  0  0  0  0  0
   -0.7788   45.2054   51.5534 H   0  0  0  0  0  0  0  0  0  0  0  0
    0.3271   44.3789   50.5501 H   0  0  0  0  0  0  0  0  0  0  0  0
   -2.6697   44.1580   50.2187 H   0  0  0  0  0  0  0  0  0  0  0  0
   -0.5300   43.3770   48.8070 H   0  0  0  0  0  0  0  0  0  0  0  0
   -3.3960   42.8179   48.3407 H   0  0  0  0  0  0  0  0  0  0  0  0
   -3.2758   45.0841   49.2831 H   0  0  0  0  0  0  0  0  0  0  0  0
   -1.9112   45.4930   48.1685 H   0  0  0  0  0  0  0  0  0  0  0  0
   -4.8300   45.4875   47.6773 H   0  0  0  0  0  0  0  0  0  0  0  0
   -3.4633   46.2955   46.7745 H   0  0  0  0  0  0  0  0  0  0  0  0
   -2.8119   43.4895   44.7297 H   0  0  0  0  0  0  0  0  0  0  0  0
   -2.0863   44.9390   45.5231 H   0  0  0  0  0  0  0  0  0  0  0  0
   -2.2172   42.0826   46.4604 H   0  0  0  0  0  0  0  0  0  0  0  0
   -0.9240   43.3380   46.6686 H   0  0  0  0  0  0  0  0  0  0  0  0
   -2.5342   42.5489   52.2044 H   0  0  0  0  0  0  0  0  0  0  0  0
   -1.5587   41.5223   51.2489 H   0  0  0  0  0  0  0  0  0  0  0  0
  1  2  2  0
  2  3  1  0
  3  4  2  0
  4  5  1  0
  5  6  2  0
  6  7  1  0
  7  8  2  0
  8  9  1  0
  9 10  2  0
 10 11  1  0
 11 12  2  0
 12 13  1  0
 13 14  2  0
  8 15  1  0
 15 16  1  0
 16 17  2  0
  2 18  1  0
 18 19  1  0
 19 20  1  0
 20 21  1  0
 21 22  1  0
 22 23  1  0
 23 24  1  0
 24 25  1  0
 25 26  1  0
 26 27  1  0
 20 28  1  0
 17  3  1  0
 28 18  1  0
 16  6  1  0
 27 22  1  0
 14  9  1  0
  4 29  1  0
  5 30  1  0
  7 31  1  0
 10 32  1  0
 11 33  1  0
 12 34  1  0
 13 35  1  0
 14 36  1  0
 15 37  1  0
 17 38  1  0
 19 39  1  0
 19 40  1  0
 20 41  1  0
 21 42  1  0
 22 43  1  0
 23 44  1  0
 23 45  1  0
 24 46  1  0
 24 47  1  0
 26 48  1  0
 26 49  1  0
 27 50  1  0
 27 51  1  0
 28 52  1  0
 28 53  1  0
M  END
>  <meeko>  (3) 
{"is_sidechain": [false], "free_energy": -8.739, "intermolecular_energy": -10.342, "internal_energy": -0.667}

$$$$
ligand_46_conformer_5_docked
     RDKit          3D

 53 57  0  0  0  0  0  0  0  0999 V2000
    6.1740   41.6960   49.8860 O   0  0  0  0  0  0  0  0  0  0  0  0
    5.7640   42.7990   50.3400 C   0  0  0  0  0  0  0  0  0  0  0  0
    4.4390   42.8710   50.9880 C   0  0  0  0  0  0  0  0  0  0  0  0
    3.3280   42.2140   50.3950 C   0  0  0  0  0  0  0  0  0  0  0  0
    2.0550   42.2700   50.9900 C   0  0  0  0  0  0  0  0  0  0  0  0
    1.9200   42.9980   52.1680 C   0  0  0  0  0  0  0  0  0  0  0  0
    0.8130   43.2340   52.9540 C   0  0  0  0  0  0  0  0  0  0  0  0
    1.2710   44.0480   53.9940 C   0  0  0  0  0  0  0  0  0  0  0  0
    0.4370   44.5800   55.1020 C   0  0  0  0  0  0  0  0  0  0  0  0
   -0.9430   44.3020   55.1570 C   0  0  0  0  0  0  0  0  0  0  0  0
   -1.7260   44.8010   56.2020 C   0  0  0  0  0  0  0  0  0  0  0  0
   -1.1440   45.5820   57.2030 C   0  0  0  0  0  0  0  0  0  0  0  0
    0.2220   45.8640   57.1610 C   0  0  0  0  0  0  0  0  0  0  0  0
    1.0110   45.3670   56.1190 C   0  0  0  0  0  0  0  0  0  0  0  0
    2.5980   44.2980   53.8520 N   0  0  0  0  0  0  0  0  0  0  0  0
    2.9780   43.6510   52.7390 C   0  0  0  0  0  0  0  0  0  0  0  0
    4.2530   43.6120   52.1780 C   0  0  0  0  0  0  0  0  0  0  0  0
    6.6200   43.9420   50.2540 N   0  0  0  0  0  0  0  0  0  0  0  0
    6.7010   45.3150   50.7930 C   0  0  0  0  0  0  0  0  0  0  0  0
    8.0780   45.6080   50.2700 C   0  0  0  0  0  0  0  0  0  0  0  0
    9.1140   45.7290   51.3130 N   0  0  0  0  0  0  0  0  0  0  0  0
    8.6940   46.6510   52.3850 C   0  0  0  0  0  0  0  0  0  0  0  0
    7.7270   45.9420   53.3490 C   0  0  0  0  0  0  0  0  0  0  0  0
    7.3460   46.8610   54.5340 C   0  0  0  0  0  0  0  0  0  0  0  0
    8.1960   47.9890   54.6690 O   0  0  0  0  0  0  0  0  0  0  0  0
    9.5490   47.5900   54.6040 C   0  0  0  0  0  0  0  0  0  0  0  0
    9.9210   47.1700   53.1710 C   0  0  0  0  0  0  0  0  0  0  0  0
    7.9690   44.2170   49.7250 C   0  0  0  0  0  0  0  0  0  0  0  0
    3.4651   41.6541   49.4581 H   0  0  0  0  0  0  0  0  0  0  0  0
    1.1941   41.7550   50.5388 H   0  0  0  0  0  0  0  0  0  0  0  0
   -0.2102   42.8621   52.7969 H   0  0  0  0  0  0  0  0  0  0  0  0
   -1.4078   43.6877   54.3718 H   0  0  0  0  0  0  0  0  0  0  0  0
   -2.8026   44.5781   56.2360 H   0  0  0  0  0  0  0  0  0  0  0  0
   -1.7620   45.9746   58.0239 H   0  0  0  0  0  0  0  0  0  0  0  0
    0.6795   46.4791   57.9499 H   0  0  0  0  0  0  0  0  0  0  0  0
    2.0874   45.5923   56.0935 H   0  0  0  0  0  0  0  0  0  0  0  0
    3.2150   44.8580   54.4810 H   0  0  0  0  0  0  0  0  0  0  0  0
    5.0930   44.1438   52.6486 H   0  0  0  0  0  0  0  0  0  0  0  0
    5.9353   45.9829   50.3715 H   0  0  0  0  0  0  0  0  0  0  0  0
    6.5374   45.4404   51.8735 H   0  0  0  0  0  0  0  0  0  0  0  0
    8.3243   46.5012   49.6771 H   0  0  0  0  0  0  0  0  0  0  0  0
    9.3050   44.7840   51.7250 H   0  0  0  0  0  0  0  0  0  0  0  0
    8.1817   47.5062   51.9201 H   0  0  0  0  0  0  0  0  0  0  0  0
    6.8139   45.6645   52.8019 H   0  0  0  0  0  0  0  0  0  0  0  0
    8.2264   45.0470   53.7483 H   0  0  0  0  0  0  0  0  0  0  0  0
    6.3162   47.2167   54.3822 H   0  0  0  0  0  0  0  0  0  0  0  0
    7.4492   46.2652   55.4529 H   0  0  0  0  0  0  0  0  0  0  0  0
   10.1889   48.4299   54.9123 H   0  0  0  0  0  0  0  0  0  0  0  0
    9.6985   46.7317   55.2755 H   0  0  0  0  0  0  0  0  0  0  0  0
   10.3398   48.0394   52.6430 H   0  0  0  0  0  0  0  0  0  0  0  0
   10.6552   46.3534   53.2349 H   0  0  0  0  0  0  0  0  0  0  0  0
    8.0073   44.1881   48.6260 H   0  0  0  0  0  0  0  0  0  0  0  0
    8.7661   43.5099   49.9981 H   0  0  0  0  0  0  0  0  0  0  0  0
  1  2  2  0
  2  3  1  0
  3  4  2  0
  4  5  1  0
  5  6  2  0
  6  7  1  0
  7  8  2  0
  8  9  1  0
  9 10  2  0
 10 11  1  0
 11 12  2  0
 12 13  1  0
 13 14  2  0
  8 15  1  0
 15 16  1  0
 16 17  2  0
  2 18  1  0
 18 19  1  0
 19 20  1  0
 20 21  1  0
 21 22  1  0
 22 23  1  0
 23 24  1  0
 24 25  1  0
 25 26  1  0
 26 27  1  0
 20 28  1  0
 17  3  1  0
 28 18  1  0
 16  6  1  0
 27 22  1  0
 14  9  1  0
  4 29  1  0
  5 30  1  0
  7 31  1  0
 10 32  1  0
 11 33  1  0
 12 34  1  0
 13 35  1  0
 14 36  1  0
 15 37  1  0
 17 38  1  0
 19 39  1  0
 19 40  1  0
 20 41  1  0
 21 42  1  0
 22 43  1  0
 23 44  1  0
 23 45  1  0
 24 46  1  0
 24 47  1  0
 26 48  1  0
 26 49  1  0
 27 50  1  0
 27 51  1  0
 28 52  1  0
 28 53  1  0
M  END
>  <meeko>  (4) 
{"is_sidechain": [false], "free_energy": -8.697, "intermolecular_energy": -11.759, "internal_energy": 0.802}

$$$$
ligand_46_conformer_5_docked
     RDKit          3D

 53 57  0  0  0  0  0  0  0  0999 V2000
    3.1330   39.2890   49.3040 O   0  0  0  0  0  0  0  0  0  0  0  0
    3.5380   40.3980   48.8610 C   0  0  0  0  0  0  0  0  0  0  0  0
    3.8320   41.4950   49.8060 C   0  0  0  0  0  0  0  0  0  0  0  0
    2.8350   41.9180   50.7250 C   0  0  0  0  0  0  0  0  0  0  0  0
    3.0870   42.9620   51.6330 C   0  0  0  0  0  0  0  0  0  0  0  0
    4.3370   43.5710   51.5910 C   0  0  0  0  0  0  0  0  0  0  0  0
    4.8550   44.6070   52.3360 C   0  0  0  0  0  0  0  0  0  0  0  0
    6.1460   44.8060   51.8390 C   0  0  0  0  0  0  0  0  0  0  0  0
    7.1070   45.8300   52.3230 C   0  0  0  0  0  0  0  0  0  0  0  0
    7.1920   46.1410   53.6940 C   0  0  0  0  0  0  0  0  0  0  0  0
    8.0980   47.1040   54.1480 C   0  0  0  0  0  0  0  0  0  0  0  0
    8.9290   47.7670   53.2420 C   0  0  0  0  0  0  0  0  0  0  0  0
    8.8560   47.4670   51.8810 C   0  0  0  0  0  0  0  0  0  0  0  0
    7.9520   46.5050   51.4210 C   0  0  0  0  0  0  0  0  0  0  0  0
    6.4070   43.9310   50.8350 N   0  0  0  0  0  0  0  0  0  0  0  0
    5.2990   43.1850   50.6980 C   0  0  0  0  0  0  0  0  0  0  0  0
    5.0830   42.1520   49.7880 C   0  0  0  0  0  0  0  0  0  0  0  0
    3.7470   40.5440   47.4540 N   0  0  0  0  0  0  0  0  0  0  0  0
    4.3770   41.4960   46.5150 C   0  0  0  0  0  0  0  0  0  0  0  0
    4.2420   40.6270   45.2980 C   0  0  0  0  0  0  0  0  0  0  0  0
    5.5200   40.1140   44.7690 N   0  0  0  0  0  0  0  0  0  0  0  0
    5.4580   39.9180   43.3080 C   0  0  0  0  0  0  0  0  0  0  0  0
    6.3990   38.7770   42.8830 C   0  0  0  0  0  0  0  0  0  0  0  0
    6.2810   38.4910   41.3660 C   0  0  0  0  0  0  0  0  0  0  0  0
    5.1330   39.0740   40.7700 O   0  0  0  0  0  0  0  0  0  0  0  0
    3.9860   38.7940   41.5450 C   0  0  0  0  0  0  0  0  0  0  0  0
    4.0140   39.5920   42.8610 C   0  0  0  0  0  0  0  0  0  0  0  0
    3.5980   39.6830   46.2660 C   0  0  0  0  0  0  0  0  0  0  0  0
    1.8529   41.4225   50.7265 H   0  0  0  0  0  0  0  0  0  0  0  0
    2.3209   43.2863   52.3527 H   0  0  0  0  0  0  0  0  0  0  0  0
    4.3591   45.1593   53.1479 H   0  0  0  0  0  0  0  0  0  0  0  0
    6.5407   45.6223   54.4129 H   0  0  0  0  0  0  0  0  0  0  0  0
    8.1566   47.3401   55.2208 H   0  0  0  0  0  0  0  0  0  0  0  0
    9.6406   48.5251   53.6010 H   0  0  0  0  0  0  0  0  0  0  0  0
    9.5115   47.9889   51.1683 H   0  0  0  0  0  0  0  0  0  0  0  0
    7.9003   46.2736   50.3469 H   0  0  0  0  0  0  0  0  0  0  0  0
    7.2900   43.8300   50.2860 H   0  0  0  0  0  0  0  0  0  0  0  0
    5.8658   41.8557   49.0743 H   0  0  0  0  0  0  0  0  0  0  0  0
    3.8184   42.4396   46.4277 H   0  0  0  0  0  0  0  0  0  0  0  0
    5.3858   41.8556   46.7659 H   0  0  0  0  0  0  0  0  0  0  0  0
    3.7904   40.9697   44.3554 H   0  0  0  0  0  0  0  0  0  0  0  0
    6.2870   40.7920   44.9940 H   0  0  0  0  0  0  0  0  0  0  0  0
    5.7776   40.8524   42.8234 H   0  0  0  0  0  0  0  0  0  0  0  0
    7.4359   39.0616   43.1151 H   0  0  0  0  0  0  0  0  0  0  0  0
    6.1147   37.8675   43.4325 H   0  0  0  0  0  0  0  0  0  0  0  0
    7.1750   38.8911   40.8652 H   0  0  0  0  0  0  0  0  0  0  0  0
    6.1903   37.4012   41.2473 H   0  0  0  0  0  0  0  0  0  0  0  0
    3.0874   39.0700   40.9738 H   0  0  0  0  0  0  0  0  0  0  0  0
    3.9711   37.7198   41.7816 H   0  0  0  0  0  0  0  0  0  0  0  0
    3.4651   40.5344   42.7170 H   0  0  0  0  0  0  0  0  0  0  0  0
    3.5464   38.9757   43.6430 H   0  0  0  0  0  0  0  0  0  0  0  0
    2.5456   39.4773   46.0209 H   0  0  0  0  0  0  0  0  0  0  0  0
    4.0185   38.6685   46.3288 H   0  0  0  0  0  0  0  0  0  0  0  0
  1  2  2  0
  2  3  1  0
  3  4  2  0
  4  5  1  0
  5  6  2  0
  6  7  1  0
  7  8  2  0
  8  9  1  0
  9 10  2  0
 10 11  1  0
 11 12  2  0
 12 13  1  0
 13 14  2  0
  8 15  1  0
 15 16  1  0
 16 17  2  0
  2 18  1  0
 18 19  1  0
 19 20  1  0
 20 21  1  0
 21 22  1  0
 22 23  1  0
 23 24  1  0
 24 25  1  0
 25 26  1  0
 26 27  1  0
 20 28  1  0
 17  3  1  0
 28 18  1  0
 16  6  1  0
 27 22  1  0
 14  9  1  0
  4 29  1  0
  5 30  1  0
  7 31  1  0
 10 32  1  0
 11 33  1  0
 12 34  1  0
 13 35  1  0
 14 36  1  0
 15 37  1  0
 17 38  1  0
 19 39  1  0
 19 40  1  0
 20 41  1  0
 21 42  1  0
 22 43  1  0
 23 44  1  0
 23 45  1  0
 24 46  1  0
 24 47  1  0
 26 48  1  0
 26 49  1  0
 27 50  1  0
 27 51  1  0
 28 52  1  0
 28 53  1  0
M  END
>  <meeko>  (5) 
{"is_sidechain": [false], "free_energy": -8.38, "intermolecular_energy": -10.182, "internal_energy": -0.384}

$$$$
