MODEL 1
REMARK VINA RESULT:    -7.946      0.000      0.000
REMARK INTER + INTRA:         -10.245
REMARK INTER:                  -9.804
REMARK INTRA:                  -0.442
REMARK UNBOUND:                -0.442
REMARK SMILES CCCNC(=O)C1CCN(C(=O)c2cccc(Cl)c2)CC1
REMARK SMILES IDX 4 1 5 2 6 3 3 5 2 6 1 7 7 8 8 9 21 10 9 11 20 12 10 13 11 14
REMARK SMILES IDX 12 15 13 16 14 17 19 18 15 19 17 20 16 21 18 22
REMARK H PARENT 4 4
ROOT
ATOM      1  N   UNL     1       0.974  43.145  53.200  1.00  0.00    -0.356 N 
ATOM      2  C   UNL     1       1.867  43.501  52.134  1.00  0.00     0.223 C 
ATOM      3  O   UNL     1       1.700  43.024  50.978  1.00  0.00    -0.275 OA
ATOM      4  H   UNL     1       1.125  43.555  54.149  1.00  0.00     0.163 HD
ENDROOT
BRANCH   1   5
ATOM      5  C   UNL     1      -0.234  42.346  52.988  1.00  0.00     0.115 C 
BRANCH   5   6
ATOM      6  C   UNL     1      -1.485  43.229  53.033  1.00  0.00     0.018 C 
ATOM      7  C   UNL     1      -1.308  44.436  53.952  1.00  0.00     0.006 C 
ENDBRANCH   5   6
ENDBRANCH   1   5
BRANCH   2   8
ATOM      8  C   UNL     1       3.021  44.438  52.392  1.00  0.00     0.082 C 
ATOM      9  C   UNL     1       4.327  43.648  52.600  1.00  0.00     0.035 C 
ATOM     10  C   UNL     1       2.713  45.383  53.585  1.00  0.00     0.035 C 
ATOM     11  C   UNL     1       5.509  44.616  52.755  1.00  0.00     0.120 C 
ATOM     12  C   UNL     1       3.951  45.703  54.440  1.00  0.00     0.120 C 
ATOM     13  N   UNL     1       5.158  45.767  53.605  1.00  0.00    -0.339 N 
ATOM     14  C   UNL     1       5.874  47.009  53.464  1.00  0.00     0.253 C 
ATOM     15  O   UNL     1       5.238  48.098  53.479  1.00  0.00    -0.269 OA
BRANCH  14  16
ATOM     16  C   UNL     1       7.342  47.036  53.283  1.00  0.00     0.041 A 
ATOM     17  C   UNL     1       7.896  46.939  51.994  1.00  0.00     0.014 A 
ATOM     18  C   UNL     1       8.198  47.201  54.385  1.00  0.00     0.034 A 
ATOM     19  C   UNL     1       9.283  46.973  51.817  1.00  0.00     0.002 A 
ATOM     20  C   UNL     1       9.585  47.236  54.205  1.00  0.00     0.041 A 
ATOM     21  C   UNL     1      10.127  47.119  52.921  1.00  0.00     0.020 A 
ATOM     22  Cl  UNL     1      10.645  47.438  55.589  1.00  0.00    -0.084 Cl
ENDBRANCH  14  16
ENDBRANCH   2   8
TORSDOF 4
ENDMDL
MODEL 2
REMARK VINA RESULT:    -7.777      2.467      2.965
REMARK INTER + INTRA:         -10.037
REMARK INTER:                 -10.141
REMARK INTRA:                   0.104
REMARK UNBOUND:                -0.442
REMARK SMILES CCCNC(=O)C1CCN(C(=O)c2cccc(Cl)c2)CC1
REMARK SMILES IDX 4 1 5 2 6 3 3 5 2 6 1 7 7 8 8 9 21 10 9 11 20 12 10 13 11 14
REMARK SMILES IDX 12 15 13 16 14 17 19 18 15 19 17 20 16 21 18 22
REMARK H PARENT 4 4
ROOT
ATOM      1  N   UNL     1       1.601  45.246  56.424  1.00  0.00    -0.356 N 
ATOM      2  C   UNL     1       1.623  45.172  54.990  1.00  0.00     0.223 C 
ATOM      3  O   UNL     1       0.573  44.889  54.352  1.00  0.00    -0.275 OA
ATOM      4  H   UNL     1       2.481  45.488  56.935  1.00  0.00     0.163 HD
ENDROOT
BRANCH   1   5
ATOM      5  C   UNL     1       0.367  45.146  57.204  1.00  0.00     0.115 C 
BRANCH   5   6
ATOM      6  C   UNL     1      -0.186  46.536  57.530  1.00  0.00     0.018 C 
ATOM      7  C   UNL     1       0.545  47.189  58.702  1.00  0.00     0.006 C 
ENDBRANCH   5   6
ENDBRANCH   1   5
BRANCH   2   8
ATOM      8  C   UNL     1       2.908  45.418  54.237  1.00  0.00     0.082 C 
ATOM      9  C   UNL     1       3.967  46.046  55.163  1.00  0.00     0.035 C 
ATOM     10  C   UNL     1       2.653  46.279  52.971  1.00  0.00     0.035 C 
ATOM     11  C   UNL     1       5.300  46.192  54.413  1.00  0.00     0.120 C 
ATOM     12  C   UNL     1       3.801  47.254  52.661  1.00  0.00     0.120 C 
ATOM     13  N   UNL     1       5.096  46.671  53.035  1.00  0.00    -0.339 N 
ATOM     14  C   UNL     1       6.079  46.383  52.022  1.00  0.00     0.253 C 
ATOM     15  O   UNL     1       5.701  46.024  50.874  1.00  0.00    -0.269 OA
BRANCH  14  16
ATOM     16  C   UNL     1       7.529  46.480  52.304  1.00  0.00     0.041 A 
ATOM     17  C   UNL     1       8.464  46.033  51.354  1.00  0.00     0.014 A 
ATOM     18  C   UNL     1       7.989  47.054  53.501  1.00  0.00     0.034 A 
ATOM     19  C   UNL     1       9.834  46.131  51.613  1.00  0.00     0.002 A 
ATOM     20  C   UNL     1       9.361  47.152  53.756  1.00  0.00     0.041 A 
ATOM     21  C   UNL     1      10.283  46.687  52.813  1.00  0.00     0.020 A 
ATOM     22  Cl  UNL     1       9.926  47.867  55.256  1.00  0.00    -0.084 Cl
ENDBRANCH  14  16
ENDBRANCH   2   8
TORSDOF 4
ENDMDL
MODEL 3
REMARK VINA RESULT:    -7.606      1.923      2.308
REMARK INTER + INTRA:          -9.826
REMARK INTER:                  -9.847
REMARK INTRA:                   0.021
REMARK UNBOUND:                -0.442
REMARK SMILES CCCNC(=O)C1CCN(C(=O)c2cccc(Cl)c2)CC1
REMARK SMILES IDX 4 1 5 2 6 3 3 5 2 6 1 7 7 8 8 9 21 10 9 11 20 12 10 13 11 14
REMARK SMILES IDX 12 15 13 16 14 17 19 18 15 19 17 20 16 21 18 22
REMARK H PARENT 4 4
ROOT
ATOM      1  N   UNL     1       0.180  45.296  54.345  1.00  0.00    -0.356 N 
ATOM      2  C   UNL     1       1.452  45.073  54.971  1.00  0.00     0.223 C 
ATOM      3  O   UNL     1       1.512  44.654  56.159  1.00  0.00    -0.275 OA
ATOM      4  H   UNL     1       0.151  45.638  53.358  1.00  0.00     0.163 HD
ENDROOT
BRANCH   1   5
ATOM      5  C   UNL     1      -1.089  44.925  54.973  1.00  0.00     0.115 C 
BRANCH   5   6
ATOM      6  C   UNL     1      -1.775  43.799  54.193  1.00  0.00     0.018 C 
ATOM      7  C   UNL     1      -1.122  43.558  52.833  1.00  0.00     0.006 C 
ENDBRANCH   5   6
ENDBRANCH   1   5
BRANCH   2   8
ATOM      8  C   UNL     1       2.729  45.352  54.216  1.00  0.00     0.082 C 
ATOM      9  C   UNL     1       3.777  45.997  55.142  1.00  0.00     0.035 C 
ATOM     10  C   UNL     1       2.452  46.216  52.956  1.00  0.00     0.035 C 
ATOM     11  C   UNL     1       5.105  46.177  54.391  1.00  0.00     0.120 C 
ATOM     12  C   UNL     1       3.578  47.218  52.649  1.00  0.00     0.120 C 
ATOM     13  N   UNL     1       4.886  46.660  53.016  1.00  0.00    -0.339 N 
ATOM     14  C   UNL     1       5.872  46.400  51.999  1.00  0.00     0.253 C 
ATOM     15  O   UNL     1       5.499  46.041  50.849  1.00  0.00    -0.269 OA
BRANCH  14  16
ATOM     16  C   UNL     1       7.320  46.527  52.277  1.00  0.00     0.041 A 
ATOM     17  C   UNL     1       8.262  46.072  51.338  1.00  0.00     0.014 A 
ATOM     18  C   UNL     1       7.771  47.138  53.459  1.00  0.00     0.034 A 
ATOM     19  C   UNL     1       9.631  46.198  51.594  1.00  0.00     0.002 A 
ATOM     20  C   UNL     1       9.142  47.263  53.711  1.00  0.00     0.041 A 
ATOM     21  C   UNL     1      10.071  46.790  52.780  1.00  0.00     0.020 A 
ATOM     22  Cl  UNL     1       9.695  48.024  55.192  1.00  0.00    -0.084 Cl
ENDBRANCH  14  16
ENDBRANCH   2   8
TORSDOF 4
ENDMDL
MODEL 4
REMARK VINA RESULT:    -7.500      3.682      8.198
REMARK INTER + INTRA:          -9.695
REMARK INTER:                  -9.188
REMARK INTRA:                  -0.508
REMARK UNBOUND:                -0.442
REMARK SMILES CCCNC(=O)C1CCN(C(=O)c2cccc(Cl)c2)CC1
REMARK SMILES IDX 4 1 5 2 6 3 3 5 2 6 1 7 7 8 8 9 21 10 9 11 20 12 10 13 11 14
REMARK SMILES IDX 12 15 13 16 14 17 19 18 15 19 17 20 16 21 18 22
REMARK H PARENT 4 4
ROOT
ATOM      1  N   UNL     1       7.766  47.105  52.054  1.00  0.00    -0.356 N 
ATOM      2  C   UNL     1       7.049  46.026  51.435  1.00  0.00     0.223 C 
ATOM      3  O   UNL     1       7.552  45.407  50.458  1.00  0.00    -0.275 OA
ATOM      4  H   UNL     1       7.335  47.603  52.865  1.00  0.00     0.163 HD
ENDROOT
BRANCH   1   5
ATOM      5  C   UNL     1       9.142  47.450  51.697  1.00  0.00     0.115 C 
BRANCH   5   6
ATOM      6  C   UNL     1      10.136  46.783  52.654  1.00  0.00     0.018 C 
ATOM      7  C   UNL     1       9.871  47.151  54.112  1.00  0.00     0.006 C 
ENDBRANCH   5   6
ENDBRANCH   1   5
BRANCH   2   8
ATOM      8  C   UNL     1       5.683  45.634  51.940  1.00  0.00     0.082 C 
ATOM      9  C   UNL     1       4.665  45.602  50.783  1.00  0.00     0.035 C 
ATOM     10  C   UNL     1       5.227  46.569  53.093  1.00  0.00     0.035 C 
ATOM     11  C   UNL     1       3.306  45.098  51.292  1.00  0.00     0.120 C 
ATOM     12  C   UNL     1       3.715  46.853  53.081  1.00  0.00     0.120 C 
ATOM     13  N   UNL     1       2.969  45.683  52.601  1.00  0.00    -0.339 N 
ATOM     14  C   UNL     1       2.063  44.993  53.483  1.00  0.00     0.253 C 
ATOM     15  O   UNL     1       2.324  44.928  54.716  1.00  0.00    -0.269 OA
BRANCH  14  16
ATOM     16  C   UNL     1       0.838  44.337  52.973  1.00  0.00     0.041 A 
ATOM     17  C   UNL     1       0.679  42.946  53.094  1.00  0.00     0.014 A 
ATOM     18  C   UNL     1      -0.195  45.098  52.401  1.00  0.00     0.034 A 
ATOM     19  C   UNL     1      -0.481  42.324  52.621  1.00  0.00     0.002 A 
ATOM     20  C   UNL     1      -1.355  44.472  51.929  1.00  0.00     0.041 A 
ATOM     21  C   UNL     1      -1.496  43.085  52.037  1.00  0.00     0.020 A 
ATOM     22  Cl  UNL     1      -2.639  45.431  51.212  1.00  0.00    -0.084 Cl
ENDBRANCH  14  16
ENDBRANCH   2   8
TORSDOF 4
ENDMDL
MODEL 5
REMARK VINA RESULT:    -7.427      3.546      8.211
REMARK INTER + INTRA:          -9.606
REMARK INTER:                  -9.198
REMARK INTRA:                  -0.408
REMARK UNBOUND:                -0.442
REMARK SMILES CCCNC(=O)C1CCN(C(=O)c2cccc(Cl)c2)CC1
REMARK SMILES IDX 4 1 5 2 6 3 3 5 2 6 1 7 7 8 8 9 21 10 9 11 20 12 10 13 11 14
REMARK SMILES IDX 12 15 13 16 14 17 19 18 15 19 17 20 16 21 18 22
REMARK H PARENT 4 4
ROOT
ATOM      1  N   UNL     1       7.584  46.766  51.685  1.00  0.00    -0.356 N 
ATOM      2  C   UNL     1       7.073  45.677  50.901  1.00  0.00     0.223 C 
ATOM      3  O   UNL     1       7.804  45.116  50.040  1.00  0.00    -0.275 OA
ATOM      4  H   UNL     1       6.965  47.214  52.398  1.00  0.00     0.163 HD
ENDROOT
BRANCH   1   5
ATOM      5  C   UNL     1       8.985  47.187  51.639  1.00  0.00     0.115 C 
BRANCH   5   6
ATOM      6  C   UNL     1       9.803  46.478  52.723  1.00  0.00     0.018 C 
ATOM      7  C   UNL     1       9.822  47.260  54.036  1.00  0.00     0.006 C 
ENDBRANCH   5   6
ENDBRANCH   1   5
BRANCH   2   8
ATOM      8  C   UNL     1       5.653  45.204  51.093  1.00  0.00     0.082 C 
ATOM      9  C   UNL     1       5.146  45.567  52.502  1.00  0.00     0.035 C 
ATOM     10  C   UNL     1       5.529  43.685  50.801  1.00  0.00     0.035 C 
ATOM     11  C   UNL     1       3.668  45.176  52.646  1.00  0.00     0.120 C 
ATOM     12  C   UNL     1       4.518  42.972  51.715  1.00  0.00     0.120 C 
ATOM     13  N   UNL     1       3.395  43.861  52.042  1.00  0.00    -0.339 N 
ATOM     14  C   UNL     1       2.065  43.539  51.592  1.00  0.00     0.253 C 
ATOM     15  O   UNL     1       1.908  42.947  50.490  1.00  0.00    -0.269 OA
BRANCH  14  16
ATOM     16  C   UNL     1       0.872  43.907  52.387  1.00  0.00     0.041 A 
ATOM     17  C   UNL     1       0.759  43.491  53.725  1.00  0.00     0.014 A 
ATOM     18  C   UNL     1      -0.140  44.707  51.831  1.00  0.00     0.034 A 
ATOM     19  C   UNL     1      -0.362  43.844  54.482  1.00  0.00     0.002 A 
ATOM     20  C   UNL     1      -1.261  45.058  52.592  1.00  0.00     0.041 A 
ATOM     21  C   UNL     1      -1.373  44.624  53.916  1.00  0.00     0.020 A 
ATOM     22  Cl  UNL     1      -2.522  46.055  51.886  1.00  0.00    -0.084 Cl
ENDBRANCH  14  16
ENDBRANCH   2   8
TORSDOF 4
ENDMDL
