MODEL 1
REMARK VINA RESULT:    -8.537      0.000      0.000
REMARK INTER + INTRA:         -10.038
REMARK INTER:                 -10.034
REMARK INTRA:                  -0.004
REMARK UNBOUND:                -0.004
REMARK SMILES C[C@@H]1CC(C2CN(C(=O)Nc3cc(-c4ccc(F)cc4)n(C)n3)C2)=NO1
REMARK SMILES IDX 5 1 6 2 7 3 24 4 8 5 9 6 10 7 4 9 2 10 3 11 26 12 25 13 1 14
REMARK SMILES IDX 11 15 12 16 23 17 13 18 21 19 22 20 14 21 15 22 20 23 16 24
REMARK SMILES IDX 19 25 17 26 18 27
REMARK H PARENT 10 8
ROOT
ATOM      1  C   UNL     1      -0.884  43.198  51.790  1.00  0.00     0.077 C 
ATOM      2  C   UNL     1      -0.335  44.494  51.275  1.00  0.00     0.133 C 
ATOM      3  N   UNL     1       1.086  44.151  51.471  1.00  0.00    -0.323 N 
ATOM      4  C   UNL     1       0.569  42.866  51.974  1.00  0.00     0.133 C 
ATOM      5  C   UNL     1       2.353  44.774  51.276  1.00  0.00     0.323 C 
ATOM      6  O   UNL     1       2.400  45.939  50.803  1.00  0.00    -0.248 OA
ATOM      7  N   UNL     1       3.554  44.056  51.594  1.00  0.00    -0.291 N 
ATOM      8  H   UNL     1       3.471  43.036  51.800  1.00  0.00     0.173 HD
ENDROOT
BRANCH   1   9
ATOM      9  C   UNL     1      -1.702  43.358  53.048  1.00  0.00     0.068 C 
ATOM     10  C   UNL     1      -2.520  43.940  55.182  1.00  0.00     0.207 C 
ATOM     11  C   UNL     1      -1.220  43.907  54.357  1.00  0.00     0.103 C 
ATOM     12  O   UNL     1      -3.491  43.432  54.283  1.00  0.00    -0.392 OA
ATOM     13  N   UNL     1      -2.968  43.123  53.056  1.00  0.00    -0.095 NA
ATOM     14  C   UNL     1      -2.900  45.352  55.623  1.00  0.00     0.056 C 
ENDBRANCH   1   9
BRANCH   7  15
ATOM     15  C   UNL     1       4.872  44.625  51.604  1.00  0.00     0.156 A 
ATOM     16  C   UNL     1       5.522  45.206  52.680  1.00  0.00     0.077 A 
ATOM     17  N   UNL     1       5.683  44.599  50.529  1.00  0.00    -0.155 NA
ATOM     18  C   UNL     1       6.771  45.529  52.184  1.00  0.00     0.070 A 
ATOM     19  N   UNL     1       6.828  45.163  50.881  1.00  0.00    -0.266 N 
ATOM     20  C   UNL     1       7.938  45.342  49.951  1.00  0.00     0.174 C 
BRANCH  18  21
ATOM     21  C   UNL     1       7.851  46.178  52.960  1.00  0.00     0.000 A 
ATOM     22  C   UNL     1       7.542  46.872  54.144  1.00  0.00     0.013 A 
ATOM     23  C   UNL     1       9.193  46.076  52.557  1.00  0.00     0.013 A 
ATOM     24  C   UNL     1       8.555  47.476  54.893  1.00  0.00     0.040 A 
ATOM     25  C   UNL     1      10.205  46.681  53.310  1.00  0.00     0.040 A 
ATOM     26  C   UNL     1       9.886  47.384  54.475  1.00  0.00     0.123 A 
ATOM     27  F   UNL     1      10.868  47.970  55.204  1.00  0.00    -0.207 F 
ENDBRANCH  18  21
ENDBRANCH   7  15
TORSDOF 3
ENDMDL
MODEL 2
REMARK VINA RESULT:    -8.385      1.975      2.496
REMARK INTER + INTRA:          -9.860
REMARK INTER:                  -9.803
REMARK INTRA:                  -0.057
REMARK UNBOUND:                -0.004
REMARK SMILES C[C@@H]1CC(C2CN(C(=O)Nc3cc(-c4ccc(F)cc4)n(C)n3)C2)=NO1
REMARK SMILES IDX 5 1 6 2 7 3 24 4 8 5 9 6 10 7 4 9 2 10 3 11 26 12 25 13 1 14
REMARK SMILES IDX 11 15 12 16 23 17 13 18 21 19 22 20 14 21 15 22 20 23 16 24
REMARK SMILES IDX 19 25 17 26 18 27
REMARK H PARENT 10 8
ROOT
ATOM      1  C   UNL     1      -2.180  43.807  54.352  1.00  0.00     0.077 C 
ATOM      2  C   UNL     1      -1.568  45.027  53.733  1.00  0.00     0.133 C 
ATOM      3  N   UNL     1      -0.262  44.412  53.432  1.00  0.00    -0.323 N 
ATOM      4  C   UNL     1      -0.846  43.198  54.029  1.00  0.00     0.133 C 
ATOM      5  C   UNL     1       0.977  44.810  52.851  1.00  0.00     0.323 C 
ATOM      6  O   UNL     1       1.110  45.990  52.433  1.00  0.00    -0.248 OA
ATOM      7  N   UNL     1       2.041  43.856  52.723  1.00  0.00    -0.291 N 
ATOM      8  H   UNL     1       1.819  42.852  52.906  1.00  0.00     0.173 HD
ENDROOT
BRANCH   1   9
ATOM      9  C   UNL     1      -2.503  43.981  55.816  1.00  0.00     0.068 C 
ATOM     10  C   UNL     1      -3.473  43.910  57.965  1.00  0.00     0.207 C 
ATOM     11  C   UNL     1      -3.801  43.641  56.484  1.00  0.00     0.103 C 
ATOM     12  O   UNL     1      -2.123  44.342  57.926  1.00  0.00    -0.392 OA
ATOM     13  N   UNL     1      -1.604  44.352  56.659  1.00  0.00    -0.095 NA
ATOM     14  C   UNL     1      -3.600  42.659  58.831  1.00  0.00     0.056 C 
ENDBRANCH   1   9
BRANCH   7  15
ATOM     15  C   UNL     1       3.381  44.170  52.316  1.00  0.00     0.156 A 
ATOM     16  C   UNL     1       4.266  45.027  52.949  1.00  0.00     0.077 A 
ATOM     17  N   UNL     1       3.973  43.591  51.254  1.00  0.00    -0.155 NA
ATOM     18  C   UNL     1       5.424  44.927  52.200  1.00  0.00     0.070 A 
ATOM     19  N   UNL     1       5.207  44.065  51.178  1.00  0.00    -0.266 N 
ATOM     20  C   UNL     1       6.135  43.683  50.120  1.00  0.00     0.174 C 
BRANCH  18  21
ATOM     21  C   UNL     1       6.680  45.658  52.477  1.00  0.00     0.000 A 
ATOM     22  C   UNL     1       7.103  45.843  53.806  1.00  0.00     0.013 A 
ATOM     23  C   UNL     1       7.486  46.135  51.430  1.00  0.00     0.013 A 
ATOM     24  C   UNL     1       8.296  46.518  54.080  1.00  0.00     0.040 A 
ATOM     25  C   UNL     1       8.680  46.810  51.707  1.00  0.00     0.040 A 
ATOM     26  C   UNL     1       9.082  47.005  53.031  1.00  0.00     0.123 A 
ATOM     27  F   UNL     1      10.240  47.659  53.299  1.00  0.00    -0.207 F 
ENDBRANCH  18  21
ENDBRANCH   7  15
TORSDOF 3
ENDMDL
MODEL 3
REMARK VINA RESULT:    -8.315      2.776      3.928
REMARK INTER + INTRA:          -9.777
REMARK INTER:                  -9.583
REMARK INTRA:                  -0.194
REMARK UNBOUND:                -0.004
REMARK SMILES C[C@@H]1CC(C2CN(C(=O)Nc3cc(-c4ccc(F)cc4)n(C)n3)C2)=NO1
REMARK SMILES IDX 5 1 6 2 7 3 24 4 8 5 9 6 10 7 4 9 2 10 3 11 26 12 25 13 1 14
REMARK SMILES IDX 11 15 12 16 23 17 13 18 21 19 22 20 14 21 15 22 20 23 16 24
REMARK SMILES IDX 19 25 17 26 18 27
REMARK H PARENT 10 8
ROOT
ATOM      1  C   UNL     1      -2.281  44.709  56.344  1.00  0.00     0.077 C 
ATOM      2  C   UNL     1      -1.973  45.293  54.998  1.00  0.00     0.133 C 
ATOM      3  N   UNL     1      -0.606  44.748  54.899  1.00  0.00    -0.323 N 
ATOM      4  C   UNL     1      -0.890  44.157  56.219  1.00  0.00     0.133 C 
ATOM      5  C   UNL     1       0.475  44.787  53.973  1.00  0.00     0.323 C 
ATOM      6  O   UNL     1       0.342  45.428  52.897  1.00  0.00    -0.248 OA
ATOM      7  N   UNL     1       1.687  44.074  54.263  1.00  0.00    -0.291 N 
ATOM      8  H   UNL     1       1.678  43.409  55.067  1.00  0.00     0.173 HD
ENDROOT
BRANCH   1   9
ATOM      9  C   UNL     1      -2.497  45.754  57.410  1.00  0.00     0.068 C 
ATOM     10  C   UNL     1      -3.379  47.150  59.094  1.00  0.00     0.207 C 
ATOM     11  C   UNL     1      -3.816  46.179  57.982  1.00  0.00     0.103 C 
ATOM     12  O   UNL     1      -1.965  47.143  58.997  1.00  0.00    -0.392 OA
ATOM     13  N   UNL     1      -1.505  46.307  58.015  1.00  0.00    -0.095 NA
ATOM     14  C   UNL     1      -3.813  46.686  60.483  1.00  0.00     0.056 C 
ENDBRANCH   1   9
BRANCH   7  15
ATOM     15  C   UNL     1       2.899  44.171  53.500  1.00  0.00     0.156 A 
ATOM     16  C   UNL     1       3.930  45.075  53.684  1.00  0.00     0.077 A 
ATOM     17  N   UNL     1       3.206  43.309  52.512  1.00  0.00    -0.155 NA
ATOM     18  C   UNL     1       4.874  44.705  52.744  1.00  0.00     0.070 A 
ATOM     19  N   UNL     1       4.398  43.647  52.045  1.00  0.00    -0.266 N 
ATOM     20  C   UNL     1       5.039  42.949  50.936  1.00  0.00     0.174 C 
BRANCH  18  21
ATOM     21  C   UNL     1       6.178  45.374  52.541  1.00  0.00     0.000 A 
ATOM     22  C   UNL     1       6.633  45.639  51.237  1.00  0.00     0.013 A 
ATOM     23  C   UNL     1       6.955  45.792  53.635  1.00  0.00     0.013 A 
ATOM     24  C   UNL     1       7.857  46.284  51.033  1.00  0.00     0.040 A 
ATOM     25  C   UNL     1       8.178  46.438  53.428  1.00  0.00     0.040 A 
ATOM     26  C   UNL     1       8.631  46.680  52.128  1.00  0.00     0.123 A 
ATOM     27  F   UNL     1       9.817  47.306  51.928  1.00  0.00    -0.207 F 
ENDBRANCH  18  21
ENDBRANCH   7  15
TORSDOF 3
ENDMDL
MODEL 4
REMARK VINA RESULT:    -7.817      3.751      9.701
REMARK INTER + INTRA:          -9.192
REMARK INTER:                  -8.711
REMARK INTRA:                  -0.481
REMARK UNBOUND:                -0.004
REMARK SMILES C[C@@H]1CC(C2CN(C(=O)Nc3cc(-c4ccc(F)cc4)n(C)n3)C2)=NO1
REMARK SMILES IDX 5 1 6 2 7 3 24 4 8 5 9 6 10 7 4 9 2 10 3 11 26 12 25 13 1 14
REMARK SMILES IDX 11 15 12 16 23 17 13 18 21 19 22 20 14 21 15 22 20 23 16 24
REMARK SMILES IDX 19 25 17 26 18 27
REMARK H PARENT 10 8
ROOT
ATOM      1  C   UNL     1       6.262  45.601  51.110  1.00  0.00     0.077 C 
ATOM      2  C   UNL     1       5.716  44.481  51.943  1.00  0.00     0.133 C 
ATOM      3  N   UNL     1       4.318  44.951  51.940  1.00  0.00    -0.323 N 
ATOM      4  C   UNL     1       4.832  46.057  51.113  1.00  0.00     0.133 C 
ATOM      5  C   UNL     1       3.069  44.537  52.488  1.00  0.00     0.323 C 
ATOM      6  O   UNL     1       3.018  43.486  53.179  1.00  0.00    -0.248 OA
ATOM      7  N   UNL     1       1.886  45.305  52.221  1.00  0.00    -0.291 N 
ATOM      8  H   UNL     1       1.945  46.051  51.494  1.00  0.00     0.173 HD
ENDROOT
BRANCH   1   9
ATOM      9  C   UNL     1       7.247  46.469  51.854  1.00  0.00     0.068 C 
ATOM     10  C   UNL     1       8.659  47.457  53.464  1.00  0.00     0.207 C 
ATOM     11  C   UNL     1       7.461  46.498  53.337  1.00  0.00     0.103 C 
ATOM     12  O   UNL     1       8.933  47.816  52.120  1.00  0.00    -0.392 OA
ATOM     13  N   UNL     1       8.096  47.205  51.226  1.00  0.00    -0.095 NA
ATOM     14  C   UNL     1       9.882  46.789  54.089  1.00  0.00     0.056 C 
ENDBRANCH   1   9
BRANCH   7  15
ATOM     15  C   UNL     1       0.612  45.092  52.847  1.00  0.00     0.156 A 
ATOM     16  C   UNL     1       0.344  45.060  54.205  1.00  0.00     0.077 A 
ATOM     17  N   UNL     1      -0.529  44.954  52.144  1.00  0.00    -0.155 NA
ATOM     18  C   UNL     1      -1.026  44.892  54.273  1.00  0.00     0.070 A 
ATOM     19  N   UNL     1      -1.518  44.817  53.013  1.00  0.00    -0.266 N 
ATOM     20  C   UNL     1      -2.903  44.608  52.606  1.00  0.00     0.174 C 
BRANCH  18  21
ATOM     21  C   UNL     1      -1.809  44.800  55.525  1.00  0.00     0.000 A 
ATOM     22  C   UNL     1      -2.120  43.539  56.065  1.00  0.00     0.013 A 
ATOM     23  C   UNL     1      -2.212  45.957  56.214  1.00  0.00     0.013 A 
ATOM     24  C   UNL     1      -2.846  43.439  57.256  1.00  0.00     0.040 A 
ATOM     25  C   UNL     1      -2.937  45.853  57.406  1.00  0.00     0.040 A 
ATOM     26  C   UNL     1      -3.257  44.596  57.924  1.00  0.00     0.123 A 
ATOM     27  F   UNL     1      -3.960  44.497  59.080  1.00  0.00    -0.207 F 
ENDBRANCH  18  21
ENDBRANCH   7  15
TORSDOF 3
ENDMDL
MODEL 5
REMARK VINA RESULT:    -7.582      4.180     10.140
REMARK INTER + INTRA:          -8.916
REMARK INTER:                  -8.559
REMARK INTRA:                  -0.357
REMARK UNBOUND:                -0.004
REMARK SMILES C[C@@H]1CC(C2CN(C(=O)Nc3cc(-c4ccc(F)cc4)n(C)n3)C2)=NO1
REMARK SMILES IDX 5 1 6 2 7 3 24 4 8 5 9 6 10 7 4 9 2 10 3 11 26 12 25 13 1 14
REMARK SMILES IDX 11 15 12 16 23 17 13 18 21 19 22 20 14 21 15 22 20 23 16 24
REMARK SMILES IDX 19 25 17 26 18 27
REMARK H PARENT 10 8
ROOT
ATOM      1  C   UNL     1       6.861  46.331  54.526  1.00  0.00     0.077 C 
ATOM      2  C   UNL     1       5.605  47.145  54.447  1.00  0.00     0.133 C 
ATOM      3  N   UNL     1       4.686  46.001  54.292  1.00  0.00    -0.323 N 
ATOM      4  C   UNL     1       5.907  45.181  54.376  1.00  0.00     0.133 C 
ATOM      5  C   UNL     1       3.286  45.794  54.128  1.00  0.00     0.323 C 
ATOM      6  O   UNL     1       2.515  46.788  54.100  1.00  0.00    -0.248 OA
ATOM      7  N   UNL     1       2.773  44.457  54.026  1.00  0.00    -0.291 N 
ATOM      8  H   UNL     1       3.421  43.669  54.244  1.00  0.00     0.173 HD
ENDROOT
BRANCH   1   9
ATOM      9  C   UNL     1       7.803  46.579  53.374  1.00  0.00     0.068 C 
ATOM     10  C   UNL     1       9.688  46.830  51.979  1.00  0.00     0.207 C 
ATOM     11  C   UNL     1       9.290  46.745  53.464  1.00  0.00     0.103 C 
ATOM     12  O   UNL     1       8.449  46.712  51.302  1.00  0.00    -0.392 OA
ATOM     13  N   UNL     1       7.390  46.554  52.156  1.00  0.00    -0.095 NA
ATOM     14  C   UNL     1      10.627  45.701  51.558  1.00  0.00     0.056 C 
ENDBRANCH   1   9
BRANCH   7  15
ATOM     15  C   UNL     1       1.418  44.122  53.691  1.00  0.00     0.156 A 
ATOM     16  C   UNL     1       0.948  43.666  52.471  1.00  0.00     0.077 A 
ATOM     17  N   UNL     1       0.416  44.160  54.591  1.00  0.00    -0.155 NA
ATOM     18  C   UNL     1      -0.397  43.435  52.694  1.00  0.00     0.070 A 
ATOM     19  N   UNL     1      -0.685  43.757  53.977  1.00  0.00    -0.266 N 
ATOM     20  C   UNL     1      -1.984  43.704  54.641  1.00  0.00     0.174 C 
BRANCH  18  21
ATOM     21  C   UNL     1      -1.350  42.929  51.682  1.00  0.00     0.000 A 
ATOM     22  C   UNL     1      -1.457  43.575  50.437  1.00  0.00     0.013 A 
ATOM     23  C   UNL     1      -2.123  41.781  51.926  1.00  0.00     0.013 A 
ATOM     24  C   UNL     1      -2.344  43.097  49.467  1.00  0.00     0.040 A 
ATOM     25  C   UNL     1      -3.008  41.305  50.952  1.00  0.00     0.040 A 
ATOM     26  C   UNL     1      -3.122  41.965  49.726  1.00  0.00     0.123 A 
ATOM     27  F   UNL     1      -3.980  41.503  48.783  1.00  0.00    -0.207 F 
ENDBRANCH  18  21
ENDBRANCH   7  15
TORSDOF 3
ENDMDL
