MODEL 1
REMARK VINA RESULT:    -8.667      0.000      0.000
REMARK INTER + INTRA:         -10.996
REMARK INTER:                 -10.693
REMARK INTRA:                  -0.303
REMARK UNBOUND:                -0.303
REMARK SMILES COC(=O)[C@H]1Cc2ccccc2CN1C(=O)[C@@H]1CC12CCOCC2
REMARK SMILES IDX 5 1 6 2 7 3 8 4 9 5 10 6 11 7 12 8 13 9 14 10 3 11 4 12 2 13
REMARK SMILES IDX 1 14 15 15 16 16 17 17 18 18 19 19 20 20 24 21 21 22 23 23
REMARK SMILES IDX 22 24
REMARK H PARENT
ROOT
ATOM      1  C   UNL     1       6.589  47.232  52.514  1.00  0.00     0.199 C 
ATOM      2  C   UNL     1       7.431  47.066  51.233  1.00  0.00     0.073 C 
ATOM      3  C   UNL     1       7.292  45.677  50.683  1.00  0.00    -0.040 A 
ATOM      4  C   UNL     1       8.395  44.988  50.154  1.00  0.00     0.004 A 
ATOM      5  C   UNL     1       8.232  43.700  49.637  1.00  0.00     0.000 A 
ATOM      6  C   UNL     1       6.969  43.100  49.634  1.00  0.00     0.000 A 
ATOM      7  C   UNL     1       5.865  43.788  50.148  1.00  0.00     0.006 A 
ATOM      8  C   UNL     1       6.025  45.076  50.683  1.00  0.00    -0.025 A 
ATOM      9  C   UNL     1       4.845  45.848  51.209  1.00  0.00     0.156 C 
ATOM     10  N   UNL     1       5.215  46.700  52.359  1.00  0.00    -0.324 N 
ENDROOT
BRANCH   1  11
ATOM     11  C   UNL     1       7.266  46.557  53.675  1.00  0.00     0.328 C 
ATOM     12  O   UNL     1       7.237  45.300  53.774  1.00  0.00    -0.250 OA
BRANCH  11  13
ATOM     13  O   UNL     1       7.911  47.331  54.645  1.00  0.00    -0.467 OA
ATOM     14  C   UNL     1       9.308  47.591  54.615  1.00  0.00     0.282 C 
ENDBRANCH  11  13
ENDBRANCH   1  11
BRANCH  10  15
ATOM     15  C   UNL     1       4.198  47.120  53.299  1.00  0.00     0.227 C 
ATOM     16  O   UNL     1       3.553  48.185  53.092  1.00  0.00    -0.275 OA
BRANCH  15  17
ATOM     17  C   UNL     1       3.863  46.291  54.513  1.00  0.00     0.085 C 
ATOM     18  C   UNL     1       4.229  44.808  54.429  1.00  0.00     0.022 C 
ATOM     19  C   UNL     1       2.765  45.229  54.350  1.00  0.00    -0.013 C 
ATOM     20  C   UNL     1       2.101  44.948  52.992  1.00  0.00     0.036 C 
ATOM     21  C   UNL     1       1.928  44.881  55.587  1.00  0.00     0.036 C 
ATOM     22  C   UNL     1       0.643  45.417  53.045  1.00  0.00     0.160 C 
ATOM     23  C   UNL     1       0.484  45.346  55.364  1.00  0.00     0.160 C 
ATOM     24  O   UNL     1      -0.036  44.839  54.146  1.00  0.00    -0.381 OA
ENDBRANCH  15  17
ENDBRANCH  10  15
TORSDOF 4
ENDMDL
MODEL 2
REMARK VINA RESULT:    -8.661      1.552      2.458
REMARK INTER + INTRA:         -10.989
REMARK INTER:                 -10.211
REMARK INTRA:                  -0.778
REMARK UNBOUND:                -0.303
REMARK SMILES COC(=O)[C@H]1Cc2ccccc2CN1C(=O)[C@@H]1CC12CCOCC2
REMARK SMILES IDX 5 1 6 2 7 3 8 4 9 5 10 6 11 7 12 8 13 9 14 10 3 11 4 12 2 13
REMARK SMILES IDX 1 14 15 15 16 16 17 17 18 18 19 19 20 20 24 21 21 22 23 23
REMARK SMILES IDX 22 24
REMARK H PARENT
ROOT
ATOM      1  C   UNL     1       6.387  47.094  52.641  1.00  0.00     0.199 C 
ATOM      2  C   UNL     1       7.494  47.149  51.570  1.00  0.00     0.073 C 
ATOM      3  C   UNL     1       7.580  45.847  50.828  1.00  0.00    -0.040 A 
ATOM      4  C   UNL     1       8.818  45.289  50.474  1.00  0.00     0.004 A 
ATOM      5  C   UNL     1       8.865  44.082  49.771  1.00  0.00     0.000 A 
ATOM      6  C   UNL     1       7.680  43.434  49.410  1.00  0.00     0.000 A 
ATOM      7  C   UNL     1       6.444  43.994  49.749  1.00  0.00     0.006 A 
ATOM      8  C   UNL     1       6.390  45.198  50.467  1.00  0.00    -0.025 A 
ATOM      9  C   UNL     1       5.071  45.836  50.812  1.00  0.00     0.156 C 
ATOM     10  N   UNL     1       5.122  46.531  52.116  1.00  0.00    -0.324 N 
ENDROOT
BRANCH   1  11
ATOM     11  C   UNL     1       6.846  46.291  53.827  1.00  0.00     0.328 C 
ATOM     12  O   UNL     1       7.685  46.782  54.630  1.00  0.00    -0.250 OA
BRANCH  11  13
ATOM     13  O   UNL     1       6.348  44.998  54.021  1.00  0.00    -0.467 OA
ATOM     14  C   UNL     1       5.772  44.575  55.250  1.00  0.00     0.282 C 
ENDBRANCH  11  13
ENDBRANCH   1  11
BRANCH  10  15
ATOM     15  C   UNL     1       3.898  46.769  52.851  1.00  0.00     0.227 C 
ATOM     16  O   UNL     1       3.943  47.330  53.981  1.00  0.00    -0.275 OA
BRANCH  15  17
ATOM     17  C   UNL     1       2.555  46.390  52.280  1.00  0.00     0.085 C 
ATOM     18  C   UNL     1       1.477  46.020  53.301  1.00  0.00     0.022 C 
ATOM     19  C   UNL     1       2.114  44.928  52.447  1.00  0.00    -0.013 C 
ATOM     20  C   UNL     1       2.949  43.913  53.245  1.00  0.00     0.036 C 
ATOM     21  C   UNL     1       1.197  44.337  51.369  1.00  0.00     0.036 C 
ATOM     22  C   UNL     1       3.532  42.878  52.276  1.00  0.00     0.160 C 
ATOM     23  C   UNL     1       1.958  43.249  50.604  1.00  0.00     0.160 C 
ATOM     24  O   UNL     1       2.510  42.289  51.490  1.00  0.00    -0.381 OA
ENDBRANCH  15  17
ENDBRANCH  10  15
TORSDOF 4
ENDMDL
MODEL 3
REMARK VINA RESULT:    -8.512      1.988      3.585
REMARK INTER + INTRA:         -10.805
REMARK INTER:                 -10.602
REMARK INTRA:                  -0.203
REMARK UNBOUND:                -0.303
REMARK SMILES COC(=O)[C@H]1Cc2ccccc2CN1C(=O)[C@@H]1CC12CCOCC2
REMARK SMILES IDX 5 1 6 2 7 3 8 4 9 5 10 6 11 7 12 8 13 9 14 10 3 11 4 12 2 13
REMARK SMILES IDX 1 14 15 15 16 16 17 17 18 18 19 19 20 20 24 21 21 22 23 23
REMARK SMILES IDX 22 24
REMARK H PARENT
ROOT
ATOM      1  C   UNL     1       5.135  46.179  53.253  1.00  0.00     0.199 C 
ATOM      2  C   UNL     1       6.053  47.413  53.364  1.00  0.00     0.073 C 
ATOM      3  C   UNL     1       7.466  47.057  53.007  1.00  0.00    -0.040 A 
ATOM      4  C   UNL     1       8.554  47.577  53.725  1.00  0.00     0.004 A 
ATOM      5  C   UNL     1       9.859  47.239  53.359  1.00  0.00     0.000 A 
ATOM      6  C   UNL     1      10.085  46.390  52.271  1.00  0.00     0.000 A 
ATOM      7  C   UNL     1       9.005  45.880  51.544  1.00  0.00     0.006 A 
ATOM      8  C   UNL     1       7.691  46.205  51.916  1.00  0.00    -0.025 A 
ATOM      9  C   UNL     1       6.515  45.696  51.126  1.00  0.00     0.156 C 
ATOM     10  N   UNL     1       5.346  45.431  51.992  1.00  0.00    -0.324 N 
ENDROOT
BRANCH   1  11
ATOM     11  C   UNL     1       5.347  45.263  54.427  1.00  0.00     0.328 C 
ATOM     12  O   UNL     1       6.142  44.289  54.327  1.00  0.00    -0.250 OA
BRANCH  11  13
ATOM     13  O   UNL     1       4.648  45.490  55.617  1.00  0.00    -0.467 OA
ATOM     14  C   UNL     1       3.357  46.083  55.647  1.00  0.00     0.282 C 
ENDBRANCH  11  13
ENDBRANCH   1  11
BRANCH  10  15
ATOM     15  C   UNL     1       4.323  44.505  51.556  1.00  0.00     0.227 C 
ATOM     16  O   UNL     1       4.543  43.263  51.593  1.00  0.00    -0.275 OA
BRANCH  15  17
ATOM     17  C   UNL     1       2.975  44.992  51.085  1.00  0.00     0.085 C 
ATOM     18  C   UNL     1       2.348  46.117  51.910  1.00  0.00     0.022 C 
ATOM     19  C   UNL     1       1.774  44.707  52.000  1.00  0.00    -0.013 C 
ATOM     20  C   UNL     1       1.940  44.046  53.378  1.00  0.00     0.036 C 
ATOM     21  C   UNL     1       0.405  44.526  51.334  1.00  0.00     0.036 C 
ATOM     22  C   UNL     1       1.328  42.642  53.334  1.00  0.00     0.160 C 
ATOM     23  C   UNL     1      -0.054  43.074  51.514  1.00  0.00     0.160 C 
ATOM     24  O   UNL     1      -0.013  42.688  52.878  1.00  0.00    -0.381 OA
ENDBRANCH  15  17
ENDBRANCH  10  15
TORSDOF 4
ENDMDL
MODEL 4
REMARK VINA RESULT:    -8.280      1.621      2.219
REMARK INTER + INTRA:         -10.519
REMARK INTER:                 -10.182
REMARK INTRA:                  -0.337
REMARK UNBOUND:                -0.303
REMARK SMILES COC(=O)[C@H]1Cc2ccccc2CN1C(=O)[C@@H]1CC12CCOCC2
REMARK SMILES IDX 5 1 6 2 7 3 8 4 9 5 10 6 11 7 12 8 13 9 14 10 3 11 4 12 2 13
REMARK SMILES IDX 1 14 15 15 16 16 17 17 18 18 19 19 20 20 24 21 21 22 23 23
REMARK SMILES IDX 22 24
REMARK H PARENT
ROOT
ATOM      1  C   UNL     1       5.234  46.378  52.956  1.00  0.00     0.199 C 
ATOM      2  C   UNL     1       5.871  46.594  51.569  1.00  0.00     0.073 C 
ATOM      3  C   UNL     1       6.214  45.279  50.933  1.00  0.00    -0.040 A 
ATOM      4  C   UNL     1       7.407  45.106  50.214  1.00  0.00     0.004 A 
ATOM      5  C   UNL     1       7.692  43.873  49.620  1.00  0.00     0.000 A 
ATOM      6  C   UNL     1       6.786  42.814  49.731  1.00  0.00     0.000 A 
ATOM      7  C   UNL     1       5.590  42.987  50.435  1.00  0.00     0.006 A 
ATOM      8  C   UNL     1       5.304  44.218  51.046  1.00  0.00    -0.025 A 
ATOM      9  C   UNL     1       4.008  44.436  51.779  1.00  0.00     0.156 C 
ATOM     10  N   UNL     1       4.177  45.340  52.937  1.00  0.00    -0.324 N 
ENDROOT
BRANCH   1  11
ATOM     11  C   UNL     1       6.288  46.009  53.964  1.00  0.00     0.328 C 
ATOM     12  O   UNL     1       6.489  44.796  54.244  1.00  0.00    -0.250 OA
BRANCH  11  13
ATOM     13  O   UNL     1       7.027  47.016  54.593  1.00  0.00    -0.467 OA
ATOM     14  C   UNL     1       8.407  47.232  54.332  1.00  0.00     0.282 C 
ENDBRANCH  11  13
ENDBRANCH   1  11
BRANCH  10  15
ATOM     15  C   UNL     1       3.229  45.294  54.029  1.00  0.00     0.227 C 
ATOM     16  O   UNL     1       3.601  44.892  55.166  1.00  0.00    -0.275 OA
BRANCH  15  17
ATOM     17  C   UNL     1       1.803  45.751  53.849  1.00  0.00     0.085 C 
ATOM     18  C   UNL     1       0.825  45.330  54.947  1.00  0.00     0.022 C 
ATOM     19  C   UNL     1       0.753  44.664  53.576  1.00  0.00    -0.013 C 
ATOM     20  C   UNL     1       1.109  43.168  53.584  1.00  0.00     0.036 C 
ATOM     21  C   UNL     1      -0.468  45.055  52.735  1.00  0.00     0.036 C 
ATOM     22  C   UNL     1       1.000  42.624  52.156  1.00  0.00     0.160 C 
ATOM     23  C   UNL     1      -0.419  44.304  51.400  1.00  0.00     0.160 C 
ATOM     24  O   UNL     1      -0.272  42.908  51.601  1.00  0.00    -0.381 OA
ENDBRANCH  15  17
ENDBRANCH  10  15
TORSDOF 4
ENDMDL
MODEL 5
REMARK VINA RESULT:    -8.156      2.050      3.608
REMARK INTER + INTRA:         -10.366
REMARK INTER:                  -9.728
REMARK INTRA:                  -0.638
REMARK UNBOUND:                -0.303
REMARK SMILES COC(=O)[C@H]1Cc2ccccc2CN1C(=O)[C@@H]1CC12CCOCC2
REMARK SMILES IDX 5 1 6 2 7 3 8 4 9 5 10 6 11 7 12 8 13 9 14 10 3 11 4 12 2 13
REMARK SMILES IDX 1 14 15 15 16 16 17 17 18 18 19 19 20 20 24 21 21 22 23 23
REMARK SMILES IDX 22 24
REMARK H PARENT
ROOT
ATOM      1  C   UNL     1       5.089  44.915  52.660  1.00  0.00     0.199 C 
ATOM      2  C   UNL     1       6.250  44.953  53.673  1.00  0.00     0.073 C 
ATOM      3  C   UNL     1       7.263  45.989  53.283  1.00  0.00    -0.040 A 
ATOM      4  C   UNL     1       8.639  45.749  53.411  1.00  0.00     0.004 A 
ATOM      5  C   UNL     1       9.558  46.739  53.052  1.00  0.00     0.000 A 
ATOM      6  C   UNL     1       9.108  47.974  52.575  1.00  0.00     0.000 A 
ATOM      7  C   UNL     1       7.737  48.222  52.458  1.00  0.00     0.006 A 
ATOM      8  C   UNL     1       6.809  47.227  52.804  1.00  0.00    -0.025 A 
ATOM      9  C   UNL     1       5.329  47.485  52.719  1.00  0.00     0.156 C 
ATOM     10  N   UNL     1       4.581  46.269  52.334  1.00  0.00    -0.324 N 
ENDROOT
BRANCH   1  11
ATOM     11  C   UNL     1       5.519  44.219  51.398  1.00  0.00     0.328 C 
ATOM     12  O   UNL     1       5.297  42.985  51.257  1.00  0.00    -0.250 OA
BRANCH  11  13
ATOM     13  O   UNL     1       6.174  44.943  50.397  1.00  0.00    -0.467 OA
ATOM     14  C   UNL     1       7.501  44.647  49.981  1.00  0.00     0.282 C 
ENDBRANCH  11  13
ENDBRANCH   1  11
BRANCH  10  15
ATOM     15  C   UNL     1       3.273  46.391  51.727  1.00  0.00     0.227 C 
ATOM     16  O   UNL     1       3.169  46.481  50.472  1.00  0.00    -0.275 OA
BRANCH  15  17
ATOM     17  C   UNL     1       2.017  46.379  52.562  1.00  0.00     0.085 C 
ATOM     18  C   UNL     1       2.093  45.587  53.868  1.00  0.00     0.022 C 
ATOM     19  C   UNL     1       1.284  45.036  52.698  1.00  0.00    -0.013 C 
ATOM     20  C   UNL     1       1.848  43.737  52.098  1.00  0.00     0.036 C 
ATOM     21  C   UNL     1      -0.237  45.077  52.892  1.00  0.00     0.036 C 
ATOM     22  C   UNL     1       0.950  43.295  50.938  1.00  0.00     0.160 C 
ATOM     23  C   UNL     1      -0.917  44.483  51.653  1.00  0.00     0.160 C 
ATOM     24  O   UNL     1      -0.401  43.197  51.351  1.00  0.00    -0.381 OA
ENDBRANCH  15  17
ENDBRANCH  10  15
TORSDOF 4
ENDMDL
