ligand_30_conformer_4_docked
     RDKit          3D

 40 42  0  0  0  0  0  0  0  0999 V2000
    9.9550   47.2220   54.4600 C   0  0  0  0  0  0  0  0  0  0  0  0
    9.6820   47.4430   53.0820 O   0  0  0  0  0  0  0  0  0  0  0  0
    8.3990   47.7320   52.6010 C   0  0  0  0  0  0  0  0  0  0  0  0
    8.0160   48.9320   52.5240 O   0  0  0  0  0  0  0  0  0  0  0  0
    7.4920   46.6160   52.2210 C   0  0  0  0  0  0  0  0  0  0  0  0
    7.5650   46.1250   50.9050 C   0  0  0  0  0  0  0  0  0  0  0  0
    6.7620   45.0630   50.4880 C   0  0  0  0  0  0  0  0  0  0  0  0
    5.8550   44.4730   51.3740 C   0  0  0  0  0  0  0  0  0  0  0  0
    5.0360   43.2890   50.9420 C   0  0  0  0  0  0  0  0  0  0  0  0
    3.6690   43.4310   51.4280 N   0  0  0  0  0  0  0  0  0  0  0  0
    3.0710   42.6790   52.3650 C   0  0  0  0  0  0  0  0  0  0  0  0
    1.8370   43.2510   52.5780 C   0  0  0  0  0  0  0  0  0  0  0  0
    0.8360   42.8480   53.6110 C   0  0  0  0  0  0  0  0  0  0  0  0
    0.6680   43.9250   54.5810 N   0  0  0  0  0  0  0  0  0  0  0  0
   -0.5050   44.4270   55.0090 C   0  0  0  0  0  0  0  0  0  0  0  0
   -0.2420   45.3710   55.9770 C   0  0  0  0  0  0  0  0  0  0  0  0
    1.1350   45.3810   56.0940 C   0  0  0  0  0  0  0  0  0  0  0  0
    1.6680   44.4860   55.2410 N   0  0  0  0  0  0  0  0  0  0  0  0
    1.7310   44.3440   51.7950 N   0  0  0  0  0  0  0  0  0  0  0  0
    2.8600   44.4280   51.1060 N   0  0  0  0  0  0  0  0  0  0  0  0
    5.7710   44.9470   52.6890 C   0  0  0  0  0  0  0  0  0  0  0  0
    6.5640   46.0260   53.1230 C   0  0  0  0  0  0  0  0  0  0  0  0
    6.3920   46.5130   54.5390 C   0  0  0  0  0  0  0  0  0  0  0  0
    9.2443   47.7973   55.0715 H   0  0  0  0  0  0  0  0  0  0  0  0
    9.8508   46.1508   54.6872 H   0  0  0  0  0  0  0  0  0  0  0  0
   10.9811   47.5469   54.6872 H   0  0  0  0  0  0  0  0  0  0  0  0
    8.2662   46.5855   50.1934 H   0  0  0  0  0  0  0  0  0  0  0  0
    6.8427   44.6879   49.4571 H   0  0  0  0  0  0  0  0  0  0  0  0
    5.0290   43.2309   49.8436 H   0  0  0  0  0  0  0  0  0  0  0  0
    5.4763   42.3711   51.3586 H   0  0  0  0  0  0  0  0  0  0  0  0
    3.4827   41.7878   52.8613 H   0  0  0  0  0  0  0  0  0  0  0  0
   -0.1284   42.6409   53.1242 H   0  0  0  0  0  0  0  0  0  0  0  0
    1.1907   41.9444   54.1284 H   0  0  0  0  0  0  0  0  0  0  0  0
   -1.5019   44.1340   54.6480 H   0  0  0  0  0  0  0  0  0  0  0  0
   -0.9677   45.9819   56.5339 H   0  0  0  0  0  0  0  0  0  0  0  0
    1.7082   46.0224   56.7796 H   0  0  0  0  0  0  0  0  0  0  0  0
    5.0747   44.4688   53.3936 H   0  0  0  0  0  0  0  0  0  0  0  0
    6.6746   45.7128   55.2388 H   0  0  0  0  0  0  0  0  0  0  0  0
    7.0348   47.3899   54.7058 H   0  0  0  0  0  0  0  0  0  0  0  0
    5.3410   46.7917   54.7058 H   0  0  0  0  0  0  0  0  0  0  0  0
  1  2  1  0
  2  3  1  0
  3  4  2  0
  3  5  1  0
  5  6  2  0
  6  7  1  0
  7  8  2  0
  8  9  1  0
  9 10  1  0
 10 11  1  0
 11 12  2  0
 12 13  1  0
 13 14  1  0
 14 15  1  0
 15 16  2  0
 16 17  1  0
 17 18  2  0
 12 19  1  0
 19 20  2  0
  8 21  1  0
 21 22  2  0
 22 23  1  0
 22  5  1  0
 20 10  1  0
 18 14  1  0
  1 24  1  0
  1 25  1  0
  1 26  1  0
  6 27  1  0
  7 28  1  0
  9 29  1  0
  9 30  1  0
 11 31  1  0
 13 32  1  0
 13 33  1  0
 15 34  1  0
 16 35  1  0
 17 36  1  0
 21 37  1  0
 23 38  1  0
 23 39  1  0
 23 40  1  0
M  END
>  <meeko>  (1) 
{"is_sidechain": [false], "free_energy": -7.967, "intermolecular_energy": -10.761, "internal_energy": -0.629}

$$$$
ligand_30_conformer_4_docked
     RDKit          3D

 40 42  0  0  0  0  0  0  0  0999 V2000
   11.0420   47.4100   56.1730 C   0  0  0  0  0  0  0  0  0  0  0  0
   10.2090   46.9120   55.1340 O   0  0  0  0  0  0  0  0  0  0  0  0
    9.1320   47.6390   54.6120 C   0  0  0  0  0  0  0  0  0  0  0  0
    8.8740   48.7860   55.0690 O   0  0  0  0  0  0  0  0  0  0  0  0
    8.2870   47.0320   53.5500 C   0  0  0  0  0  0  0  0  0  0  0  0
    6.8950   46.9950   53.7540 C   0  0  0  0  0  0  0  0  0  0  0  0
    6.0410   46.4630   52.7890 C   0  0  0  0  0  0  0  0  0  0  0  0
    6.5570   45.9420   51.5980 C   0  0  0  0  0  0  0  0  0  0  0  0
    5.6300   45.4260   50.5330 C   0  0  0  0  0  0  0  0  0  0  0  0
    4.3260   45.1310   51.1150 N   0  0  0  0  0  0  0  0  0  0  0  0
    4.0050   44.0560   51.8520 C   0  0  0  0  0  0  0  0  0  0  0  0
    2.7120   44.2630   52.2780 C   0  0  0  0  0  0  0  0  0  0  0  0
    1.9370   43.4020   53.2220 C   0  0  0  0  0  0  0  0  0  0  0  0
    1.3980   44.2180   54.3030 N   0  0  0  0  0  0  0  0  0  0  0  0
    0.0950   44.4570   54.5400 C   0  0  0  0  0  0  0  0  0  0  0  0
   -0.0050   45.2030   55.6930 C   0  0  0  0  0  0  0  0  0  0  0  0
    1.3000   45.3740   56.1160 C   0  0  0  0  0  0  0  0  0  0  0  0
    2.1370   44.7580   55.2590 N   0  0  0  0  0  0  0  0  0  0  0  0
    2.2970   45.4610   51.8190 N   0  0  0  0  0  0  0  0  0  0  0  0
    3.2990   45.9660   51.1140 N   0  0  0  0  0  0  0  0  0  0  0  0
    7.9400   45.9730   51.3760 C   0  0  0  0  0  0  0  0  0  0  0  0
    8.8170   46.4940   52.3440 C   0  0  0  0  0  0  0  0  0  0  0  0
   10.2970   46.4580   52.0590 C   0  0  0  0  0  0  0  0  0  0  0  0
   10.6063   47.1495   57.1489 H   0  0  0  0  0  0  0  0  0  0  0  0
   12.0429   46.9620   56.0870 H   0  0  0  0  0  0  0  0  0  0  0  0
   11.1212   48.5038   56.0870 H   0  0  0  0  0  0  0  0  0  0  0  0
    6.4742   47.3921   54.6896 H   0  0  0  0  0  0  0  0  0  0  0  0
    4.9553   46.4529   52.9653 H   0  0  0  0  0  0  0  0  0  0  0  0
    5.5157   46.1877   49.7477 H   0  0  0  0  0  0  0  0  0  0  0  0
    6.0507   44.5070   50.0989 H   0  0  0  0  0  0  0  0  0  0  0  0
    4.6439   43.1877   52.0708 H   0  0  0  0  0  0  0  0  0  0  0  0
    1.1097   42.9193   52.6811 H   0  0  0  0  0  0  0  0  0  0  0  0
    2.6020   42.6335   53.6430 H   0  0  0  0  0  0  0  0  0  0  0  0
   -0.7461   44.1150   53.9190 H   0  0  0  0  0  0  0  0  0  0  0  0
   -0.9209   45.5797   56.1718 H   0  0  0  0  0  0  0  0  0  0  0  0
    1.6078   45.9283   57.0149 H   0  0  0  0  0  0  0  0  0  0  0  0
    8.3459   45.5840   50.4305 H   0  0  0  0  0  0  0  0  0  0  0  0
   10.8529   46.4445   53.0081 H   0  0  0  0  0  0  0  0  0  0  0  0
   10.5371   45.5537   51.4805 H   0  0  0  0  0  0  0  0  0  0  0  0
   10.5808   47.3495   51.4805 H   0  0  0  0  0  0  0  0  0  0  0  0
  1  2  1  0
  2  3  1  0
  3  4  2  0
  3  5  1  0
  5  6  2  0
  6  7  1  0
  7  8  2  0
  8  9  1  0
  9 10  1  0
 10 11  1  0
 11 12  2  0
 12 13  1  0
 13 14  1  0
 14 15  1  0
 15 16  2  0
 16 17  1  0
 17 18  2  0
 12 19  1  0
 19 20  2  0
  8 21  1  0
 21 22  2  0
 22 23  1  0
 22  5  1  0
 20 10  1  0
 18 14  1  0
  1 24  1  0
  1 25  1  0
  1 26  1  0
  6 27  1  0
  7 28  1  0
  9 29  1  0
  9 30  1  0
 11 31  1  0
 13 32  1  0
 13 33  1  0
 15 34  1  0
 16 35  1  0
 17 36  1  0
 21 37  1  0
 23 38  1  0
 23 39  1  0
 23 40  1  0
M  END
>  <meeko>  (2) 
{"is_sidechain": [false], "free_energy": -7.781, "intermolecular_energy": -11.031, "internal_energy": -0.108}

$$$$
ligand_30_conformer_4_docked
     RDKit          3D

 40 42  0  0  0  0  0  0  0  0999 V2000
    5.7370   41.7910   47.0010 C   0  0  0  0  0  0  0  0  0  0  0  0
    5.2550   41.2490   48.2250 O   0  0  0  0  0  0  0  0  0  0  0  0
    5.8900   41.4710   49.4530 C   0  0  0  0  0  0  0  0  0  0  0  0
    6.9860   40.8970   49.7010 O   0  0  0  0  0  0  0  0  0  0  0  0
    5.2450   42.3520   50.4610 C   0  0  0  0  0  0  0  0  0  0  0  0
    4.1710   41.8290   51.2050 C   0  0  0  0  0  0  0  0  0  0  0  0
    3.5350   42.5910   52.1840 C   0  0  0  0  0  0  0  0  0  0  0  0
    3.9480   43.9030   52.4370 C   0  0  0  0  0  0  0  0  0  0  0  0
    3.3030   44.7010   53.5370 C   0  0  0  0  0  0  0  0  0  0  0  0
    4.2270   45.7240   54.0100 N   0  0  0  0  0  0  0  0  0  0  0  0
    5.5250   45.5540   54.3090 C   0  0  0  0  0  0  0  0  0  0  0  0
    6.0150   46.8080   54.5940 C   0  0  0  0  0  0  0  0  0  0  0  0
    7.4380   47.1650   54.8770 C   0  0  0  0  0  0  0  0  0  0  0  0
    8.1810   47.2530   53.6250 N   0  0  0  0  0  0  0  0  0  0  0  0
    9.2530   46.5130   53.2880 C   0  0  0  0  0  0  0  0  0  0  0  0
    9.6150   46.8390   52.0000 C   0  0  0  0  0  0  0  0  0  0  0  0
    8.6950   47.7920   51.6060 C   0  0  0  0  0  0  0  0  0  0  0  0
    7.8260   48.0230   52.6090 N   0  0  0  0  0  0  0  0  0  0  0  0
    5.0190   47.7030   54.4330 N   0  0  0  0  0  0  0  0  0  0  0  0
    3.9440   47.0150   54.0770 N   0  0  0  0  0  0  0  0  0  0  0  0
    5.0180   44.4400   51.7100 C   0  0  0  0  0  0  0  0  0  0  0  0
    5.6620   43.6890   50.7090 C   0  0  0  0  0  0  0  0  0  0  0  0
    6.7780   44.3430   49.9340 C   0  0  0  0  0  0  0  0  0  0  0  0
    6.4541   42.5974   47.2143 H   0  0  0  0  0  0  0  0  0  0  0  0
    6.2359   41.0005   46.4212 H   0  0  0  0  0  0  0  0  0  0  0  0
    4.8936   42.1942   46.4212 H   0  0  0  0  0  0  0  0  0  0  0  0
    3.8277   40.8021   51.0109 H   0  0  0  0  0  0  0  0  0  0  0  0
    2.7041   42.1581   52.7604 H   0  0  0  0  0  0  0  0  0  0  0  0
    2.3910   45.1816   53.1533 H   0  0  0  0  0  0  0  0  0  0  0  0
    3.0454   44.0303   54.3700 H   0  0  0  0  0  0  0  0  0  0  0  0
    6.0827   44.6060   54.3232 H   0  0  0  0  0  0  0  0  0  0  0  0
    7.4757   48.1354   55.3936 H   0  0  0  0  0  0  0  0  0  0  0  0
    7.8883   46.3896   55.5142 H   0  0  0  0  0  0  0  0  0  0  0  0
    9.7542   45.7744   53.9309 H   0  0  0  0  0  0  0  0  0  0  0  0
   10.4518   46.4309   51.4141 H   0  0  0  0  0  0  0  0  0  0  0  0
    8.6753   48.2863   50.6235 H   0  0  0  0  0  0  0  0  0  0  0  0
    5.3599   45.4633   51.9245 H   0  0  0  0  0  0  0  0  0  0  0  0
    7.5092   44.7715   50.6352 H   0  0  0  0  0  0  0  0  0  0  0  0
    7.2735   43.5924   49.3007 H   0  0  0  0  0  0  0  0  0  0  0  0
    6.3653   45.1422   49.3007 H   0  0  0  0  0  0  0  0  0  0  0  0
  1  2  1  0
  2  3  1  0
  3  4  2  0
  3  5  1  0
  5  6  2  0
  6  7  1  0
  7  8  2  0
  8  9  1  0
  9 10  1  0
 10 11  1  0
 11 12  2  0
 12 13  1  0
 13 14  1  0
 14 15  1  0
 15 16  2  0
 16 17  1  0
 17 18  2  0
 12 19  1  0
 19 20  2  0
  8 21  1  0
 21 22  2  0
 22 23  1  0
 22  5  1  0
 20 10  1  0
 18 14  1  0
  1 24  1  0
  1 25  1  0
  1 26  1  0
  6 27  1  0
  7 28  1  0
  9 29  1  0
  9 30  1  0
 11 31  1  0
 13 32  1  0
 13 33  1  0
 15 34  1  0
 16 35  1  0
 17 36  1  0
 21 37  1  0
 23 38  1  0
 23 39  1  0
 23 40  1  0
M  END
>  <meeko>  (3) 
{"is_sidechain": [false], "free_energy": -7.751, "intermolecular_energy": -10.935, "internal_energy": -0.163}

$$$$
ligand_30_conformer_4_docked
     RDKit          3D

 40 42  0  0  0  0  0  0  0  0999 V2000
    9.9490   47.2590   54.4910 C   0  0  0  0  0  0  0  0  0  0  0  0
    9.6610   47.4420   53.1100 O   0  0  0  0  0  0  0  0  0  0  0  0
    8.3750   47.7300   52.6370 C   0  0  0  0  0  0  0  0  0  0  0  0
    7.9870   48.9280   52.5740 O   0  0  0  0  0  0  0  0  0  0  0  0
    7.4730   46.6140   52.2480 C   0  0  0  0  0  0  0  0  0  0  0  0
    7.5420   46.1380   50.9260 C   0  0  0  0  0  0  0  0  0  0  0  0
    6.7430   45.0780   50.5000 C   0  0  0  0  0  0  0  0  0  0  0  0
    5.8420   44.4730   51.3830 C   0  0  0  0  0  0  0  0  0  0  0  0
    5.0270   43.2900   50.9390 C   0  0  0  0  0  0  0  0  0  0  0  0
    3.6710   43.4020   51.4630 N   0  0  0  0  0  0  0  0  0  0  0  0
    3.0960   42.5980   52.3730 C   0  0  0  0  0  0  0  0  0  0  0  0
    1.8660   43.1540   52.6440 C   0  0  0  0  0  0  0  0  0  0  0  0
    0.8900   42.6930   53.6770 C   0  0  0  0  0  0  0  0  0  0  0  0
   -0.4690   42.9870   53.2360 N   0  0  0  0  0  0  0  0  0  0  0  0
   -1.1940   44.0670   53.5790 C   0  0  0  0  0  0  0  0  0  0  0  0
   -2.3890   44.0190   52.8960 C   0  0  0  0  0  0  0  0  0  0  0  0
   -2.3140   42.8670   52.1350 C   0  0  0  0  0  0  0  0  0  0  0  0
   -1.1320   42.2590   52.3520 N   0  0  0  0  0  0  0  0  0  0  0  0
    1.7410   44.2870   51.9240 N   0  0  0  0  0  0  0  0  0  0  0  0
    2.8530   44.4120   51.2150 N   0  0  0  0  0  0  0  0  0  0  0  0
    5.7610   44.9310   52.7040 C   0  0  0  0  0  0  0  0  0  0  0  0
    6.5510   46.0080   53.1470 C   0  0  0  0  0  0  0  0  0  0  0  0
    6.3830   46.4780   54.5690 C   0  0  0  0  0  0  0  0  0  0  0  0
    9.1735   47.7518   55.0957 H   0  0  0  0  0  0  0  0  0  0  0  0
    9.9664   46.1838   54.7226 H   0  0  0  0  0  0  0  0  0  0  0  0
   10.9298   47.6999   54.7226 H   0  0  0  0  0  0  0  0  0  0  0  0
    8.2379   46.6100   50.2167 H   0  0  0  0  0  0  0  0  0  0  0  0
    6.8213   44.7154   49.4644 H   0  0  0  0  0  0  0  0  0  0  0  0
    4.9929   43.2614   49.8399 H   0  0  0  0  0  0  0  0  0  0  0  0
    5.4888   42.3667   51.3188 H   0  0  0  0  0  0  0  0  0  0  0  0
    3.5209   41.6831   52.8116 H   0  0  0  0  0  0  0  0  0  0  0  0
    0.9996   41.6086   53.8253 H   0  0  0  0  0  0  0  0  0  0  0  0
    1.0870   43.2174   54.6237 H   0  0  0  0  0  0  0  0  0  0  0  0
   -0.8855   44.8532   54.2837 H   0  0  0  0  0  0  0  0  0  0  0  0
   -3.2197   44.7384   52.9451 H   0  0  0  0  0  0  0  0  0  0  0  0
   -3.0994   42.5029   51.4563 H   0  0  0  0  0  0  0  0  0  0  0  0
    5.0696   44.4416   53.4057 H   0  0  0  0  0  0  0  0  0  0  0  0
    6.6715   45.6709   55.2584 H   0  0  0  0  0  0  0  0  0  0  0  0
    7.0232   47.3554   54.7432 H   0  0  0  0  0  0  0  0  0  0  0  0
    5.3317   46.7508   54.7432 H   0  0  0  0  0  0  0  0  0  0  0  0
  1  2  1  0
  2  3  1  0
  3  4  2  0
  3  5  1  0
  5  6  2  0
  6  7  1  0
  7  8  2  0
  8  9  1  0
  9 10  1  0
 10 11  1  0
 11 12  2  0
 12 13  1  0
 13 14  1  0
 14 15  1  0
 15 16  2  0
 16 17  1  0
 17 18  2  0
 12 19  1  0
 19 20  2  0
  8 21  1  0
 21 22  2  0
 22 23  1  0
 22  5  1  0
 20 10  1  0
 18 14  1  0
  1 24  1  0
  1 25  1  0
  1 26  1  0
  6 27  1  0
  7 28  1  0
  9 29  1  0
  9 30  1  0
 11 31  1  0
 13 32  1  0
 13 33  1  0
 15 34  1  0
 16 35  1  0
 17 36  1  0
 21 37  1  0
 23 38  1  0
 23 39  1  0
 23 40  1  0
M  END
>  <meeko>  (4) 
{"is_sidechain": [false], "free_energy": -7.531, "intermolecular_energy": -10.358, "internal_energy": -0.444}

$$$$
ligand_30_conformer_4_docked
     RDKit          3D

 40 42  0  0  0  0  0  0  0  0999 V2000
   11.1420   47.5550   56.4230 C   0  0  0  0  0  0  0  0  0  0  0  0
   10.4210   47.0130   55.3230 O   0  0  0  0  0  0  0  0  0  0  0  0
    9.3770   47.7000   54.6900 C   0  0  0  0  0  0  0  0  0  0  0  0
    9.0630   48.8570   55.0820 O   0  0  0  0  0  0  0  0  0  0  0  0
    8.6310   47.0390   53.5860 C   0  0  0  0  0  0  0  0  0  0  0  0
    9.3010   46.8340   52.3660 C   0  0  0  0  0  0  0  0  0  0  0  0
    8.6700   46.1980   51.2970 C   0  0  0  0  0  0  0  0  0  0  0  0
    7.3470   45.7620   51.4170 C   0  0  0  0  0  0  0  0  0  0  0  0
    6.6900   45.0210   50.2850 C   0  0  0  0  0  0  0  0  0  0  0  0
    5.3930   44.5120   50.7170 N   0  0  0  0  0  0  0  0  0  0  0  0
    4.2540   45.2150   50.8240 C   0  0  0  0  0  0  0  0  0  0  0  0
    3.2760   44.3010   51.1480 C   0  0  0  0  0  0  0  0  0  0  0  0
    1.8110   44.5700   51.2680 C   0  0  0  0  0  0  0  0  0  0  0  0
    1.4090   44.4910   52.6670 N   0  0  0  0  0  0  0  0  0  0  0  0
    1.9160   45.2200   53.6780 C   0  0  0  0  0  0  0  0  0  0  0  0
    1.2190   44.9100   54.8250 C   0  0  0  0  0  0  0  0  0  0  0  0
    0.2810   43.9770   54.4260 C   0  0  0  0  0  0  0  0  0  0  0  0
    0.4090   43.7430   53.1060 N   0  0  0  0  0  0  0  0  0  0  0  0
    3.8360   43.0750   51.1990 N   0  0  0  0  0  0  0  0  0  0  0  0
    5.1240   43.2340   50.9330 N   0  0  0  0  0  0  0  0  0  0  0  0
    6.6650   45.9540   52.6250 C   0  0  0  0  0  0  0  0  0  0  0  0
    7.2820   46.6050   53.7090 C   0  0  0  0  0  0  0  0  0  0  0  0
    6.4770   46.8180   54.9650 C   0  0  0  0  0  0  0  0  0  0  0  0
   10.6868   47.2128   57.3641 H   0  0  0  0  0  0  0  0  0  0  0  0
   12.1880   47.2177   56.3777 H   0  0  0  0  0  0  0  0  0  0  0  0
   11.1087   48.6536   56.3777 H   0  0  0  0  0  0  0  0  0  0  0  0
   10.3388   47.1808   52.2534 H   0  0  0  0  0  0  0  0  0  0  0  0
    9.2157   46.0387   50.3553 H   0  0  0  0  0  0  0  0  0  0  0  0
    6.5498   45.7036   49.4339 H   0  0  0  0  0  0  0  0  0  0  0  0
    7.3291   44.1786   49.9818 H   0  0  0  0  0  0  0  0  0  0  0  0
    4.1279   46.2985   50.6820 H   0  0  0  0  0  0  0  0  0  0  0  0
    1.5912   45.5759   50.8808 H   0  0  0  0  0  0  0  0  0  0  0  0
    1.2545   43.8201   50.6866 H   0  0  0  0  0  0  0  0  0  0  0  0
    2.7444   45.9396   53.6017 H   0  0  0  0  0  0  0  0  0  0  0  0
    1.3747   45.3156   55.8356 H   0  0  0  0  0  0  0  0  0  0  0  0
   -0.4576   43.4984   55.0859 H   0  0  0  0  0  0  0  0  0  0  0  0
    5.6319   45.5905   52.7278 H   0  0  0  0  0  0  0  0  0  0  0  0
    7.1168   46.6487   55.8437 H   0  0  0  0  0  0  0  0  0  0  0  0
    6.0931   47.8486   54.9841 H   0  0  0  0  0  0  0  0  0  0  0  0
    5.6336   46.1121   54.9841 H   0  0  0  0  0  0  0  0  0  0  0  0
  1  2  1  0
  2  3  1  0
  3  4  2  0
  3  5  1  0
  5  6  2  0
  6  7  1  0
  7  8  2  0
  8  9  1  0
  9 10  1  0
 10 11  1  0
 11 12  2  0
 12 13  1  0
 13 14  1  0
 14 15  1  0
 15 16  2  0
 16 17  1  0
 17 18  2  0
 12 19  1  0
 19 20  2  0
  8 21  1  0
 21 22  2  0
 22 23  1  0
 22  5  1  0
 20 10  1  0
 18 14  1  0
  1 24  1  0
  1 25  1  0
  1 26  1  0
  6 27  1  0
  7 28  1  0
  9 29  1  0
  9 30  1  0
 11 31  1  0
 13 32  1  0
 13 33  1  0
 15 34  1  0
 16 35  1  0
 17 36  1  0
 21 37  1  0
 23 38  1  0
 23 39  1  0
 23 40  1  0
M  END
>  <meeko>  (5) 
{"is_sidechain": [false], "free_energy": -7.305, "intermolecular_energy": -10.328, "internal_energy": -0.168}

$$$$
