ligand_19_conformer_5_docked
     RDKit          3D

 47 50  0  0  0  0  0  0  0  0999 V2000
    8.6720   48.2260   55.0330 O   0  0  0  0  0  0  0  0  0  0  0  0
    8.9120   47.7310   53.9000 C   0  0  0  0  0  0  0  0  0  0  0  0
   10.1490   46.9970   53.5660 C   0  0  0  0  0  0  0  0  0  0  0  0
    9.9670   46.6510   52.0800 C   0  0  0  0  0  0  0  0  0  0  0  0
    8.5720   47.1770   51.6500 C   0  0  1  0  0  0  0  0  0  0  0  0
    7.6640   46.0640   51.1750 C   0  0  0  0  0  0  0  0  0  0  0  0
    8.1000   45.1450   50.2050 C   0  0  0  0  0  0  0  0  0  0  0  0
    7.2450   44.1400   49.7500 C   0  0  0  0  0  0  0  0  0  0  0  0
    5.9500   44.0340   50.2620 C   0  0  0  0  0  0  0  0  0  0  0  0
    5.5020   44.9300   51.2490 C   0  0  0  0  0  0  0  0  0  0  0  0
    4.1650   44.8600   51.7760 N   0  0  0  0  0  0  0  0  0  0  0  0
    3.8450   44.3840   53.0950 C   0  0  0  0  0  0  0  0  0  0  0  0
    4.7590   44.2310   53.9510 O   0  0  0  0  0  0  0  0  0  0  0  0
    2.4380   44.1180   53.4720 C   0  0  0  0  0  0  0  0  0  0  0  0
    1.7540   44.9590   54.3650 C   0  0  0  0  0  0  0  0  0  0  0  0
    0.4250   44.6800   54.6910 C   0  0  0  0  0  0  0  0  0  0  0  0
   -0.2230   43.5810   54.1230 C   0  0  0  0  0  0  0  0  0  0  0  0
   -1.5540   43.3160   54.4760 O   0  0  0  0  0  0  0  0  0  0  0  0
   -2.3100   44.0540   55.3990 C   0  0  0  0  0  0  0  0  0  0  0  0
   -3.0380   45.1600   54.9440 C   0  0  0  0  0  0  0  0  0  0  0  0
   -3.8170   45.9080   55.8320 C   0  0  0  0  0  0  0  0  0  0  0  0
   -3.8820   45.5490   57.1810 C   0  0  0  0  0  0  0  0  0  0  0  0
   -3.1750   44.4350   57.6410 C   0  0  0  0  0  0  0  0  0  0  0  0
   -2.3950   43.6850   56.7550 C   0  0  0  0  0  0  0  0  0  0  0  0
    0.4990   42.7500   53.2520 C   0  0  0  0  0  0  0  0  0  0  0  0
    1.7930   43.0380   52.9500 N   0  0  0  0  0  0  0  0  0  0  0  0
    6.3570   45.9560   51.6810 C   0  0  0  0  0  0  0  0  0  0  0  0
    8.0110   47.8250   52.8210 N   0  0  0  0  0  0  0  0  0  0  0  0
   11.0356   47.6304   53.7170 H   0  0  0  0  0  0  0  0  0  0  0  0
   10.3061   46.1101   54.1975 H   0  0  0  0  0  0  0  0  0  0  0  0
   10.7526   47.1358   51.4819 H   0  0  0  0  0  0  0  0  0  0  0  0
   10.0388   45.5648   51.9220 H   0  0  0  0  0  0  0  0  0  0  0  0
    8.6687   47.8696   50.8009 H   0  0  0  0  0  0  0  0  0  0  0  0
    9.1209   45.2183   49.8021 H   0  0  0  0  0  0  0  0  0  0  0  0
    7.5923   43.4292   48.9857 H   0  0  0  0  0  0  0  0  0  0  0  0
    5.2775   43.2462   49.8916 H   0  0  0  0  0  0  0  0  0  0  0  0
    3.3970   45.2730   51.2000 H   0  0  0  0  0  0  0  0  0  0  0  0
    2.2612   45.8307   54.8042 H   0  0  0  0  0  0  0  0  0  0  0  0
   -0.1135   45.3284   55.3979 H   0  0  0  0  0  0  0  0  0  0  0  0
   -2.9969   45.4421   53.8816 H   0  0  0  0  0  0  0  0  0  0  0  0
   -4.3796   46.7804   55.4682 H   0  0  0  0  0  0  0  0  0  0  0  0
   -4.4892   46.1428   57.8801 H   0  0  0  0  0  0  0  0  0  0  0  0
   -3.2320   44.1476   58.7013 H   0  0  0  0  0  0  0  0  0  0  0  0
   -1.8461   42.8039   57.1188 H   0  0  0  0  0  0  0  0  0  0  0  0
    0.0169   41.8641   52.8129 H   0  0  0  0  0  0  0  0  0  0  0  0
    6.0000   46.6841   52.4243 H   0  0  0  0  0  0  0  0  0  0  0  0
    7.0890   48.3160   52.8520 H   0  0  0  0  0  0  0  0  0  0  0  0
  1  2  2  0
  2  3  1  0
  3  4  1  0
  4  5  1  0
  5  6  1  0
  6  7  2  0
  7  8  1  0
  8  9  2  0
  9 10  1  0
 10 11  1  0
 11 12  1  0
 12 13  2  0
 12 14  1  0
 14 15  2  0
 15 16  1  0
 16 17  2  0
 17 18  1  0
 18 19  1  0
 19 20  2  0
 20 21  1  0
 21 22  2  0
 22 23  1  0
 23 24  2  0
 17 25  1  0
 25 26  2  0
 10 27  2  0
  5 28  1  0
 28  2  1  0
 27  6  1  0
 26 14  1  0
 24 19  1  0
  3 29  1  0
  3 30  1  0
  4 31  1  0
  4 32  1  0
  5 33  1  6
  7 34  1  0
  8 35  1  0
  9 36  1  0
 11 37  1  0
 15 38  1  0
 16 39  1  0
 20 40  1  0
 21 41  1  0
 22 42  1  0
 23 43  1  0
 24 44  1  0
 25 45  1  0
 27 46  1  0
 28 47  1  0
M  END
>  <meeko>  (1) 
{"is_sidechain": [false], "free_energy": -9.616, "intermolecular_energy": -12.427, "internal_energy": -0.769}

$$$$
ligand_19_conformer_5_docked
     RDKit          3D

 47 50  0  0  0  0  0  0  0  0999 V2000
    8.7200   48.3250   54.9780 O   0  0  0  0  0  0  0  0  0  0  0  0
    8.9460   47.7320   53.8900 C   0  0  0  0  0  0  0  0  0  0  0  0
   10.1490   46.9160   53.6310 C   0  0  0  0  0  0  0  0  0  0  0  0
    9.9650   46.4630   52.1740 C   0  0  0  0  0  0  0  0  0  0  0  0
    8.6010   47.0190   51.6860 C   0  0  1  0  0  0  0  0  0  0  0  0
    7.6440   45.9170   51.2880 C   0  0  0  0  0  0  0  0  0  0  0  0
    7.8710   45.1520   50.1310 C   0  0  0  0  0  0  0  0  0  0  0  0
    6.9680   44.1570   49.7540 C   0  0  0  0  0  0  0  0  0  0  0  0
    5.8330   43.9090   50.5290 C   0  0  0  0  0  0  0  0  0  0  0  0
    5.5980   44.6480   51.7020 C   0  0  0  0  0  0  0  0  0  0  0  0
    4.4250   44.4310   52.5050 N   0  0  0  0  0  0  0  0  0  0  0  0
    3.2010   45.1730   52.3590 C   0  0  0  0  0  0  0  0  0  0  0  0
    3.0170   45.8940   51.3410 O   0  0  0  0  0  0  0  0  0  0  0  0
    2.1320   45.0570   53.3760 C   0  0  0  0  0  0  0  0  0  0  0  0
    0.7780   45.0010   53.0040 C   0  0  0  0  0  0  0  0  0  0  0  0
   -0.2030   44.8850   53.9900 C   0  0  0  0  0  0  0  0  0  0  0  0
    0.1600   44.8090   55.3380 C   0  0  0  0  0  0  0  0  0  0  0  0
   -0.8450   44.7030   56.3090 O   0  0  0  0  0  0  0  0  0  0  0  0
   -1.6520   45.7580   56.7600 C   0  0  0  0  0  0  0  0  0  0  0  0
   -1.0580   46.8010   57.4820 C   0  0  0  0  0  0  0  0  0  0  0  0
   -1.8270   47.8780   57.9320 C   0  0  0  0  0  0  0  0  0  0  0  0
   -3.1960   47.9250   57.6540 C   0  0  0  0  0  0  0  0  0  0  0  0
   -3.7950   46.8990   56.9180 C   0  0  0  0  0  0  0  0  0  0  0  0
   -3.0270   45.8200   56.4670 C   0  0  0  0  0  0  0  0  0  0  0  0
    1.5200   44.8890   55.6740 C   0  0  0  0  0  0  0  0  0  0  0  0
    2.4590   45.0060   54.6960 N   0  0  0  0  0  0  0  0  0  0  0  0
    6.4960   45.6660   52.0590 C   0  0  0  0  0  0  0  0  0  0  0  0
    8.0600   47.7830   52.7950 N   0  0  0  0  0  0  0  0  0  0  0  0
   11.0637   47.5164   53.7440 H   0  0  0  0  0  0  0  0  0  0  0  0
   10.2567   46.0751   54.3319 H   0  0  0  0  0  0  0  0  0  0  0  0
   10.7787   46.8616   51.5504 H   0  0  0  0  0  0  0  0  0  0  0  0
    9.9861   45.3656   52.1020 H   0  0  0  0  0  0  0  0  0  0  0  0
    8.7403   47.6369   50.7867 H   0  0  0  0  0  0  0  0  0  0  0  0
    8.7658   45.3387   49.5190 H   0  0  0  0  0  0  0  0  0  0  0  0
    7.1507   43.5665   48.8441 H   0  0  0  0  0  0  0  0  0  0  0  0
    5.1190   43.1313   50.2201 H   0  0  0  0  0  0  0  0  0  0  0  0
    4.4360   43.6200   53.1650 H   0  0  0  0  0  0  0  0  0  0  0  0
    0.4931   45.0483   51.9426 H   0  0  0  0  0  0  0  0  0  0  0  0
   -1.2651   44.8533   53.7056 H   0  0  0  0  0  0  0  0  0  0  0  0
    0.0206   46.7723   57.6962 H   0  0  0  0  0  0  0  0  0  0  0  0
   -1.3544   48.6892   58.5053 H   0  0  0  0  0  0  0  0  0  0  0  0
   -3.8018   48.7694   58.0145 H   0  0  0  0  0  0  0  0  0  0  0  0
   -4.8710   46.9398   56.6931 H   0  0  0  0  0  0  0  0  0  0  0  0
   -3.4995   45.0175   55.8815 H   0  0  0  0  0  0  0  0  0  0  0  0
    1.8276   44.8571   56.7296 H   0  0  0  0  0  0  0  0  0  0  0  0
    6.2988   46.2750   52.9535 H   0  0  0  0  0  0  0  0  0  0  0  0
    7.1640   48.3180   52.7760 H   0  0  0  0  0  0  0  0  0  0  0  0
  1  2  2  0
  2  3  1  0
  3  4  1  0
  4  5  1  0
  5  6  1  0
  6  7  2  0
  7  8  1  0
  8  9  2  0
  9 10  1  0
 10 11  1  0
 11 12  1  0
 12 13  2  0
 12 14  1  0
 14 15  2  0
 15 16  1  0
 16 17  2  0
 17 18  1  0
 18 19  1  0
 19 20  2  0
 20 21  1  0
 21 22  2  0
 22 23  1  0
 23 24  2  0
 17 25  1  0
 25 26  2  0
 10 27  2  0
  5 28  1  0
 28  2  1  0
 27  6  1  0
 26 14  1  0
 24 19  1  0
  3 29  1  0
  3 30  1  0
  4 31  1  0
  4 32  1  0
  5 33  1  6
  7 34  1  0
  8 35  1  0
  9 36  1  0
 11 37  1  0
 15 38  1  0
 16 39  1  0
 20 40  1  0
 21 41  1  0
 22 42  1  0
 23 43  1  0
 24 44  1  0
 25 45  1  0
 27 46  1  0
 28 47  1  0
M  END
>  <meeko>  (2) 
{"is_sidechain": [false], "free_energy": -9.492, "intermolecular_energy": -12.109, "internal_energy": -0.927}

$$$$
ligand_19_conformer_5_docked
     RDKit          3D

 47 50  0  0  0  0  0  0  0  0999 V2000
    0.2690   46.2530   57.9540 O   0  0  0  0  0  0  0  0  0  0  0  0
   -0.7580   46.0030   57.2680 C   0  0  0  0  0  0  0  0  0  0  0  0
   -1.8380   46.9770   57.0160 C   0  0  0  0  0  0  0  0  0  0  0  0
   -2.8520   46.1760   56.1830 C   0  0  0  0  0  0  0  0  0  0  0  0
   -2.2510   44.7640   55.9570 C   0  0  1  0  0  0  0  0  0  0  0  0
   -2.0440   44.4600   54.4890 C   0  0  0  0  0  0  0  0  0  0  0  0
   -3.0710   43.8800   53.7250 C   0  0  0  0  0  0  0  0  0  0  0  0
   -2.8630   43.5750   52.3780 C   0  0  0  0  0  0  0  0  0  0  0  0
   -1.6320   43.8500   51.7790 C   0  0  0  0  0  0  0  0  0  0  0  0
   -0.5980   44.4490   52.5200 C   0  0  0  0  0  0  0  0  0  0  0  0
    0.6870   44.7210   51.9350 N   0  0  0  0  0  0  0  0  0  0  0  0
    1.8310   43.8580   52.0700 C   0  0  0  0  0  0  0  0  0  0  0  0
    1.6890   42.6850   52.5120 O   0  0  0  0  0  0  0  0  0  0  0  0
    3.1710   44.3230   51.6460 C   0  0  0  0  0  0  0  0  0  0  0  0
    3.3770   45.6400   51.2020 C   0  0  0  0  0  0  0  0  0  0  0  0
    4.6560   46.0440   50.8170 C   0  0  0  0  0  0  0  0  0  0  0  0
    5.7270   45.1500   50.8860 C   0  0  0  0  0  0  0  0  0  0  0  0
    7.0000   45.5780   50.4830 O   0  0  0  0  0  0  0  0  0  0  0  0
    7.9860   46.1040   51.3310 C   0  0  0  0  0  0  0  0  0  0  0  0
    7.6080   47.0290   52.3110 C   0  0  0  0  0  0  0  0  0  0  0  0
    8.5600   47.5620   53.1860 C   0  0  0  0  0  0  0  0  0  0  0  0
    9.8960   47.1650   53.0920 C   0  0  0  0  0  0  0  0  0  0  0  0
   10.2800   46.2270   52.1300 C   0  0  0  0  0  0  0  0  0  0  0  0
    9.3290   45.6930   51.2530 C   0  0  0  0  0  0  0  0  0  0  0  0
    5.4800   43.8360   51.3140 C   0  0  0  0  0  0  0  0  0  0  0  0
    4.2250   43.4620   51.6810 N   0  0  0  0  0  0  0  0  0  0  0  0
   -0.8060   44.7280   53.8810 C   0  0  0  0  0  0  0  0  0  0  0  0
   -0.9810   44.7520   56.6600 N   0  0  0  0  0  0  0  0  0  0  0  0
   -2.2872   47.3198   57.9598 H   0  0  0  0  0  0  0  0  0  0  0  0
   -1.4863   47.8863   56.5066 H   0  0  0  0  0  0  0  0  0  0  0  0
   -3.8056   46.0967   56.7255 H   0  0  0  0  0  0  0  0  0  0  0  0
   -3.0466   46.6746   55.2220 H   0  0  0  0  0  0  0  0  0  0  0  0
   -2.9387   43.9915   56.3316 H   0  0  0  0  0  0  0  0  0  0  0  0
   -4.0442   43.6650   54.1905 H   0  0  0  0  0  0  0  0  0  0  0  0
   -3.6705   43.1172   51.7878 H   0  0  0  0  0  0  0  0  0  0  0  0
   -1.4702   43.5965   50.7209 H   0  0  0  0  0  0  0  0  0  0  0  0
    0.7620   45.5430   51.2940 H   0  0  0  0  0  0  0  0  0  0  0  0
    2.5360   46.3477   51.1582 H   0  0  0  0  0  0  0  0  0  0  0  0
    4.8214   47.0705   50.4578 H   0  0  0  0  0  0  0  0  0  0  0  0
    6.5557   47.3387   52.3935 H   0  0  0  0  0  0  0  0  0  0  0  0
    8.2565   48.2943   53.9487 H   0  0  0  0  0  0  0  0  0  0  0  0
   10.6457   47.5907   53.7752 H   0  0  0  0  0  0  0  0  0  0  0  0
   11.3306   45.9081   52.0620 H   0  0  0  0  0  0  0  0  0  0  0  0
    9.6325   44.9500   50.5008 H   0  0  0  0  0  0  0  0  0  0  0  0
    6.3032   43.1074   51.3526 H   0  0  0  0  0  0  0  0  0  0  0  0
    0.0101   45.1614   54.4778 H   0  0  0  0  0  0  0  0  0  0  0  0
   -0.3420   43.9290   56.7330 H   0  0  0  0  0  0  0  0  0  0  0  0
  1  2  2  0
  2  3  1  0
  3  4  1  0
  4  5  1  0
  5  6  1  0
  6  7  2  0
  7  8  1  0
  8  9  2  0
  9 10  1  0
 10 11  1  0
 11 12  1  0
 12 13  2  0
 12 14  1  0
 14 15  2  0
 15 16  1  0
 16 17  2  0
 17 18  1  0
 18 19  1  0
 19 20  2  0
 20 21  1  0
 21 22  2  0
 22 23  1  0
 23 24  2  0
 17 25  1  0
 25 26  2  0
 10 27  2  0
  5 28  1  0
 28  2  1  0
 27  6  1  0
 26 14  1  0
 24 19  1  0
  3 29  1  0
  3 30  1  0
  4 31  1  0
  4 32  1  0
  5 33  1  1
  7 34  1  0
  8 35  1  0
  9 36  1  0
 11 37  1  0
 15 38  1  0
 16 39  1  0
 20 40  1  0
 21 41  1  0
 22 42  1  0
 23 43  1  0
 24 44  1  0
 25 45  1  0
 27 46  1  0
 28 47  1  0
M  END
>  <meeko>  (3) 
{"is_sidechain": [false], "free_energy": -8.67, "intermolecular_energy": -11.145, "internal_energy": -0.828}

$$$$
ligand_19_conformer_5_docked
     RDKit          3D

 47 50  0  0  0  0  0  0  0  0999 V2000
   -2.7350   43.2730   58.4830 O   0  0  0  0  0  0  0  0  0  0  0  0
   -2.9820   44.0140   57.4950 C   0  0  0  0  0  0  0  0  0  0  0  0
   -2.7640   45.4740   57.4850 C   0  0  0  0  0  0  0  0  0  0  0  0
   -3.2560   45.8970   56.0910 C   0  0  0  0  0  0  0  0  0  0  0  0
   -3.6900   44.6090   55.3440 C   0  0  1  0  0  0  0  0  0  0  0  0
   -2.8800   44.3770   54.0870 C   0  0  0  0  0  0  0  0  0  0  0  0
   -3.3660   43.5450   53.0630 C   0  0  0  0  0  0  0  0  0  0  0  0
   -2.5990   43.3130   51.9200 C   0  0  0  0  0  0  0  0  0  0  0  0
   -1.3450   43.9110   51.7810 C   0  0  0  0  0  0  0  0  0  0  0  0
   -0.8500   44.7640   52.7840 C   0  0  0  0  0  0  0  0  0  0  0  0
    0.4480   45.3740   52.6790 N   0  0  0  0  0  0  0  0  0  0  0  0
    1.6540   44.7960   53.2100 C   0  0  0  0  0  0  0  0  0  0  0  0
    1.6650   43.5920   53.5840 O   0  0  0  0  0  0  0  0  0  0  0  0
    2.8990   45.5940   53.2730 C   0  0  0  0  0  0  0  0  0  0  0  0
    4.1380   44.9870   53.5370 C   0  0  0  0  0  0  0  0  0  0  0  0
    5.2930   45.7700   53.5820 C   0  0  0  0  0  0  0  0  0  0  0  0
    5.2180   47.1460   53.3520 C   0  0  0  0  0  0  0  0  0  0  0  0
    6.3910   47.9120   53.4140 O   0  0  0  0  0  0  0  0  0  0  0  0
    7.6870   47.4340   53.1660 C   0  0  0  0  0  0  0  0  0  0  0  0
    8.0760   47.1980   51.8420 C   0  0  0  0  0  0  0  0  0  0  0  0
    9.3650   46.7390   51.5540 C   0  0  0  0  0  0  0  0  0  0  0  0
   10.2780   46.5220   52.5900 C   0  0  0  0  0  0  0  0  0  0  0  0
    9.9050   46.7730   53.9130 C   0  0  0  0  0  0  0  0  0  0  0  0
    8.6160   47.2330   54.2030 C   0  0  0  0  0  0  0  0  0  0  0  0
    3.9610   47.7210   53.1130 C   0  0  0  0  0  0  0  0  0  0  0  0
    2.8480   46.9400   53.0770 N   0  0  0  0  0  0  0  0  0  0  0  0
   -1.6140   44.9710   53.9440 C   0  0  0  0  0  0  0  0  0  0  0  0
   -3.4950   43.5170   56.2800 N   0  0  0  0  0  0  0  0  0  0  0  0
   -3.3505   45.9652   58.2754 H   0  0  0  0  0  0  0  0  0  0  0  0
   -1.7172   45.7537   57.6746 H   0  0  0  0  0  0  0  0  0  0  0  0
   -4.1105   46.5832   56.1857 H   0  0  0  0  0  0  0  0  0  0  0  0
   -2.4598   46.4177   55.5387 H   0  0  0  0  0  0  0  0  0  0  0  0
   -4.7372   44.6919   55.0177 H   0  0  0  0  0  0  0  0  0  0  0  0
   -4.3553   43.0747   53.1631 H   0  0  0  0  0  0  0  0  0  0  0  0
   -2.9840   42.6565   51.1258 H   0  0  0  0  0  0  0  0  0  0  0  0
   -0.7412   43.7141   50.8828 H   0  0  0  0  0  0  0  0  0  0  0  0
    0.5290   46.2390   52.0970 H   0  0  0  0  0  0  0  0  0  0  0  0
    4.1978   43.9019   53.7072 H   0  0  0  0  0  0  0  0  0  0  0  0
    6.2647   45.3023   53.7991 H   0  0  0  0  0  0  0  0  0  0  0  0
    7.3631   47.3748   51.0231 H   0  0  0  0  0  0  0  0  0  0  0  0
    9.6607   46.5486   50.5117 H   0  0  0  0  0  0  0  0  0  0  0  0
   11.2896   46.1538   52.3639 H   0  0  0  0  0  0  0  0  0  0  0  0
   10.6258   46.6087   54.7275 H   0  0  0  0  0  0  0  0  0  0  0  0
    8.3282   47.4381   55.2447 H   0  0  0  0  0  0  0  0  0  0  0  0
    3.8752   48.8061   52.9543 H   0  0  0  0  0  0  0  0  0  0  0  0
   -1.2171   45.6054   54.7502 H   0  0  0  0  0  0  0  0  0  0  0  0
   -3.7280   42.5160   56.0950 H   0  0  0  0  0  0  0  0  0  0  0  0
  1  2  2  0
  2  3  1  0
  3  4  1  0
  4  5  1  0
  5  6  1  0
  6  7  2  0
  7  8  1  0
  8  9  2  0
  9 10  1  0
 10 11  1  0
 11 12  1  0
 12 13  2  0
 12 14  1  0
 14 15  2  0
 15 16  1  0
 16 17  2  0
 17 18  1  0
 18 19  1  0
 19 20  2  0
 20 21  1  0
 21 22  2  0
 22 23  1  0
 23 24  2  0
 17 25  1  0
 25 26  2  0
 10 27  2  0
  5 28  1  0
 28  2  1  0
 27  6  1  0
 26 14  1  0
 24 19  1  0
  3 29  1  0
  3 30  1  0
  4 31  1  0
  4 32  1  0
  5 33  1  6
  7 34  1  0
  8 35  1  0
  9 36  1  0
 11 37  1  0
 15 38  1  0
 16 39  1  0
 20 40  1  0
 21 41  1  0
 22 42  1  0
 23 43  1  0
 24 44  1  0
 25 45  1  0
 27 46  1  0
 28 47  1  0
M  END
>  <meeko>  (4) 
{"is_sidechain": [false], "free_energy": -8.486, "intermolecular_energy": -10.804, "internal_energy": -0.93}

$$$$
ligand_19_conformer_5_docked
     RDKit          3D

 47 50  0  0  0  0  0  0  0  0999 V2000
   10.3230   47.3960   54.7330 O   0  0  0  0  0  0  0  0  0  0  0  0
    9.6610   47.0700   53.7130 C   0  0  0  0  0  0  0  0  0  0  0  0
   10.2420   46.3980   52.5330 C   0  0  0  0  0  0  0  0  0  0  0  0
    9.0470   46.2670   51.5750 C   0  0  0  0  0  0  0  0  0  0  0  0
    7.8040   46.8400   52.3040 C   0  0  1  0  0  0  0  0  0  0  0  0
    6.7190   45.8010   52.4880 C   0  0  0  0  0  0  0  0  0  0  0  0
    6.1940   45.5300   53.7630 C   0  0  0  0  0  0  0  0  0  0  0  0
    5.2140   44.5490   53.9280 C   0  0  0  0  0  0  0  0  0  0  0  0
    4.7450   43.8330   52.8250 C   0  0  0  0  0  0  0  0  0  0  0  0
    5.2430   44.1030   51.5390 C   0  0  0  0  0  0  0  0  0  0  0  0
    4.7950   43.3650   50.3890 N   0  0  0  0  0  0  0  0  0  0  0  0
    5.5120   42.2560   49.8150 C   0  0  0  0  0  0  0  0  0  0  0  0
    6.4590   41.7190   50.4520 O   0  0  0  0  0  0  0  0  0  0  0  0
    5.1120   41.7090   48.5000 C   0  0  0  0  0  0  0  0  0  0  0  0
    5.7690   42.0970   47.3210 C   0  0  0  0  0  0  0  0  0  0  0  0
    5.3690   41.5530   46.0980 C   0  0  0  0  0  0  0  0  0  0  0  0
    4.3320   40.6190   46.0500 C   0  0  0  0  0  0  0  0  0  0  0  0
    3.9420   40.0960   44.8090 O   0  0  0  0  0  0  0  0  0  0  0  0
    4.7220   39.2560   44.0010 C   0  0  0  0  0  0  0  0  0  0  0  0
    4.5080   37.8730   44.0620 C   0  0  0  0  0  0  0  0  0  0  0  0
    5.2540   37.0060   43.2580 C   0  0  0  0  0  0  0  0  0  0  0  0
    6.2120   37.5160   42.3790 C   0  0  0  0  0  0  0  0  0  0  0  0
    6.4200   38.8960   42.2960 C   0  0  0  0  0  0  0  0  0  0  0  0
    5.6750   39.7650   43.1000 C   0  0  0  0  0  0  0  0  0  0  0  0
    3.6840   40.2710   47.2450 C   0  0  0  0  0  0  0  0  0  0  0  0
    4.0870   40.8150   48.4250 N   0  0  0  0  0  0  0  0  0  0  0  0
    6.2470   45.0720   51.3830 C   0  0  0  0  0  0  0  0  0  0  0  0
    8.2780   47.3110   53.5930 N   0  0  0  0  0  0  0  0  0  0  0  0
   11.0404   47.0083   52.0856 H   0  0  0  0  0  0  0  0  0  0  0  0
   10.7074   45.4310   52.7746 H   0  0  0  0  0  0  0  0  0  0  0  0
    9.2390   46.8372   50.6541 H   0  0  0  0  0  0  0  0  0  0  0  0
    8.8844   45.2149   51.2981 H   0  0  0  0  0  0  0  0  0  0  0  0
    7.3506   47.6467   51.7093 H   0  0  0  0  0  0  0  0  0  0  0  0
    6.5568   46.0934   54.6353 H   0  0  0  0  0  0  0  0  0  0  0  0
    4.8105   44.3398   54.9297 H   0  0  0  0  0  0  0  0  0  0  0  0
    3.9815   43.0533   52.9634 H   0  0  0  0  0  0  0  0  0  0  0  0
    3.8460   43.5870   50.0110 H   0  0  0  0  0  0  0  0  0  0  0  0
    6.5932   42.8245   47.3602 H   0  0  0  0  0  0  0  0  0  0  0  0
    5.8725   41.8614   45.1699 H   0  0  0  0  0  0  0  0  0  0  0  0
    3.7487   37.4668   44.7464 H   0  0  0  0  0  0  0  0  0  0  0  0
    5.0862   35.9205   43.3178 H   0  0  0  0  0  0  0  0  0  0  0  0
    6.8028   36.8320   41.7521 H   0  0  0  0  0  0  0  0  0  0  0  0
    7.1694   39.2984   41.5985 H   0  0  0  0  0  0  0  0  0  0  0  0
    5.8350   40.8509   43.0275 H   0  0  0  0  0  0  0  0  0  0  0  0
    2.8479   39.5564   47.2276 H   0  0  0  0  0  0  0  0  0  0  0  0
    6.6687   45.2627   50.3851 H   0  0  0  0  0  0  0  0  0  0  0  0
    7.6890   47.7870   54.3130 H   0  0  0  0  0  0  0  0  0  0  0  0
  1  2  2  0
  2  3  1  0
  3  4  1  0
  4  5  1  0
  5  6  1  0
  6  7  2  0
  7  8  1  0
  8  9  2  0
  9 10  1  0
 10 11  1  0
 11 12  1  0
 12 13  2  0
 12 14  1  0
 14 15  2  0
 15 16  1  0
 16 17  2  0
 17 18  1  0
 18 19  1  0
 19 20  2  0
 20 21  1  0
 21 22  2  0
 22 23  1  0
 23 24  2  0
 17 25  1  0
 25 26  2  0
 10 27  2  0
  5 28  1  0
 28  2  1  0
 27  6  1  0
 26 14  1  0
 24 19  1  0
  3 29  1  0
  3 30  1  0
  4 31  1  0
  4 32  1  0
  5 33  1  6
  7 34  1  0
  8 35  1  0
  9 36  1  0
 11 37  1  0
 15 38  1  0
 16 39  1  0
 20 40  1  0
 21 41  1  0
 22 42  1  0
 23 43  1  0
 24 44  1  0
 25 45  1  0
 27 46  1  0
 28 47  1  0
M  END
>  <meeko>  (5) 
{"is_sidechain": [false], "free_energy": -8.257, "intermolecular_energy": -10.64, "internal_energy": -0.799}

$$$$
