MODEL 1
REMARK VINA RESULT:    -7.883      0.000      0.000
REMARK INTER + INTRA:         -10.359
REMARK INTER:                  -9.726
REMARK INTRA:                  -0.632
REMARK UNBOUND:                -0.632
REMARK SMILES O=C(Nc1ccc(-n2cccn2)nc1)[C@H]1C[C@H]1C1CCCC1
REMARK SMILES IDX 1 1 2 2 3 3 15 5 16 6 17 7 18 8 19 9 22 10 20 11 21 12 4 13
REMARK SMILES IDX 5 14 14 15 6 16 13 17 7 18 8 19 9 20 12 21 10 22 11 23
REMARK H PARENT 3 4
ROOT
ATOM      1  O   UNL     1       6.317  45.144  51.886  1.00  0.00    -0.274 OA
ATOM      2  C   UNL     1       6.441  46.397  51.969  1.00  0.00     0.227 C 
ATOM      3  N   UNL     1       5.463  47.188  52.660  1.00  0.00    -0.324 N 
ATOM      4  H   UNL     1       5.542  48.228  52.588  1.00  0.00     0.169 HD
ENDROOT
BRANCH   2   5
ATOM      5  C   UNL     1       7.630  47.075  51.346  1.00  0.00     0.082 C 
ATOM      6  C   UNL     1       8.009  48.435  51.928  1.00  0.00     0.018 C 
ATOM      7  C   UNL     1       8.887  47.221  52.212  1.00  0.00     0.005 C 
BRANCH   7   8
ATOM      8  C   UNL     1       8.861  46.752  53.687  1.00  0.00    -0.007 C 
ATOM      9  C   UNL     1       8.270  47.842  54.590  1.00  0.00     0.004 C 
ATOM     10  C   UNL     1      10.284  46.490  54.206  1.00  0.00     0.004 C 
ATOM     11  C   UNL     1       9.440  48.453  55.338  1.00  0.00     0.000 C 
ATOM     12  C   UNL     1      10.458  47.338  55.458  1.00  0.00     0.000 C 
ENDBRANCH   7   8
ENDBRANCH   2   5
BRANCH   3  13
ATOM     13  C   UNL     1       4.297  46.649  53.306  1.00  0.00     0.059 A 
ATOM     14  C   UNL     1       4.342  46.157  54.620  1.00  0.00     0.031 A 
ATOM     15  C   UNL     1       3.066  46.665  52.639  1.00  0.00     0.139 A 
ATOM     16  C   UNL     1       3.183  45.662  55.222  1.00  0.00     0.051 A 
ATOM     17  N   UNL     1       1.951  46.178  53.244  1.00  0.00    -0.235 NA
ATOM     18  C   UNL     1       1.974  45.674  54.509  1.00  0.00     0.153 A 
BRANCH  18  19
ATOM     19  N   UNL     1       0.765  45.171  55.102  1.00  0.00    -0.223 N 
ATOM     20  C   UNL     1       0.375  45.352  56.379  1.00  0.00     0.117 A 
ATOM     21  N   UNL     1      -0.140  44.451  54.457  1.00  0.00    -0.175 NA
ATOM     22  C   UNL     1      -0.836  44.718  56.558  1.00  0.00     0.042 A 
ATOM     23  C   UNL     1      -1.127  44.162  55.326  1.00  0.00     0.135 A 
ENDBRANCH  18  19
ENDBRANCH   3  13
TORSDOF 4
ENDMDL
MODEL 2
REMARK VINA RESULT:    -7.815      5.199      6.302
REMARK INTER + INTRA:         -10.274
REMARK INTER:                  -9.603
REMARK INTRA:                  -0.671
REMARK UNBOUND:                -0.632
REMARK SMILES O=C(Nc1ccc(-n2cccn2)nc1)[C@H]1C[C@H]1C1CCCC1
REMARK SMILES IDX 1 1 2 2 3 3 15 5 16 6 17 7 18 8 19 9 22 10 20 11 21 12 4 13
REMARK SMILES IDX 5 14 14 15 6 16 13 17 7 18 8 19 9 20 12 21 10 22 11 23
REMARK H PARENT 3 4
ROOT
ATOM      1  O   UNL     1       4.447  45.749  51.282  1.00  0.00    -0.274 OA
ATOM      2  C   UNL     1       4.689  45.164  52.374  1.00  0.00     0.227 C 
ATOM      3  N   UNL     1       4.691  43.732  52.456  1.00  0.00    -0.324 N 
ATOM      4  H   UNL     1       4.767  43.302  53.406  1.00  0.00     0.169 HD
ENDROOT
BRANCH   2   5
ATOM      5  C   UNL     1       4.990  45.974  53.606  1.00  0.00     0.082 C 
ATOM      6  C   UNL     1       5.912  45.318  54.631  1.00  0.00     0.018 C 
ATOM      7  C   UNL     1       6.428  46.475  53.782  1.00  0.00     0.005 C 
BRANCH   7   8
ATOM      8  C   UNL     1       7.512  46.071  52.754  1.00  0.00    -0.007 C 
ATOM      9  C   UNL     1       8.880  45.941  53.435  1.00  0.00     0.004 C 
ATOM     10  C   UNL     1       7.673  47.150  51.671  1.00  0.00     0.004 C 
ATOM     11  C   UNL     1       9.675  47.168  53.028  1.00  0.00     0.000 C 
ATOM     12  C   UNL     1       9.143  47.547  51.661  1.00  0.00     0.000 C 
ENDBRANCH   7   8
ENDBRANCH   2   5
BRANCH   3  13
ATOM     13  C   UNL     1       4.435  42.858  51.344  1.00  0.00     0.059 A 
ATOM     14  C   UNL     1       5.466  42.408  50.506  1.00  0.00     0.031 A 
ATOM     15  C   UNL     1       3.135  42.388  51.118  1.00  0.00     0.139 A 
ATOM     16  C   UNL     1       5.180  41.541  49.449  1.00  0.00     0.051 A 
ATOM     17  N   UNL     1       2.880  41.545  50.083  1.00  0.00    -0.235 NA
ATOM     18  C   UNL     1       3.860  41.114  49.242  1.00  0.00     0.153 A 
BRANCH  18  19
ATOM     19  N   UNL     1       3.536  40.222  48.162  1.00  0.00    -0.223 N 
ATOM     20  C   UNL     1       3.722  40.466  46.850  1.00  0.00     0.117 A 
ATOM     21  N   UNL     1       3.001  39.020  48.320  1.00  0.00    -0.175 NA
ATOM     22  C   UNL     1       3.286  39.370  46.137  1.00  0.00     0.042 A 
ATOM     23  C   UNL     1       2.840  38.481  47.097  1.00  0.00     0.135 A 
ENDBRANCH  18  19
ENDBRANCH   3  13
TORSDOF 4
ENDMDL
MODEL 3
REMARK VINA RESULT:    -7.401      1.817      2.983
REMARK INTER + INTRA:          -9.764
REMARK INTER:                  -9.158
REMARK INTRA:                  -0.606
REMARK UNBOUND:                -0.632
REMARK SMILES O=C(Nc1ccc(-n2cccn2)nc1)[C@H]1C[C@H]1C1CCCC1
REMARK SMILES IDX 1 1 2 2 3 3 15 5 16 6 17 7 18 8 19 9 22 10 20 11 21 12 4 13
REMARK SMILES IDX 5 14 14 15 6 16 13 17 7 18 8 19 9 20 12 21 10 22 11 23
REMARK H PARENT 3 4
ROOT
ATOM      1  O   UNL     1       3.607  45.927  51.861  1.00  0.00    -0.274 OA
ATOM      2  C   UNL     1       4.226  44.912  52.284  1.00  0.00     0.227 C 
ATOM      3  N   UNL     1       3.762  44.196  53.437  1.00  0.00    -0.324 N 
ATOM      4  H   UNL     1       4.380  43.446  53.822  1.00  0.00     0.169 HD
ENDROOT
BRANCH   2   5
ATOM      5  C   UNL     1       5.461  44.437  51.568  1.00  0.00     0.082 C 
ATOM      6  C   UNL     1       5.989  45.350  50.464  1.00  0.00     0.018 C 
ATOM      7  C   UNL     1       6.748  45.240  51.782  1.00  0.00     0.005 C 
BRANCH   7   8
ATOM      8  C   UNL     1       6.715  46.528  52.641  1.00  0.00    -0.007 C 
ATOM      9  C   UNL     1       7.612  47.610  52.026  1.00  0.00     0.004 C 
ATOM     10  C   UNL     1       7.266  46.264  54.051  1.00  0.00     0.004 C 
ATOM     11  C   UNL     1       8.855  47.673  52.895  1.00  0.00     0.000 C 
ATOM     12  C   UNL     1       8.392  47.263  54.277  1.00  0.00     0.000 C 
ENDBRANCH   7   8
ENDBRANCH   2   5
BRANCH   3  13
ATOM     13  C   UNL     1       2.588  44.547  54.189  1.00  0.00     0.059 A 
ATOM     14  C   UNL     1       1.316  44.072  53.837  1.00  0.00     0.031 A 
ATOM     15  C   UNL     1       2.714  45.334  55.341  1.00  0.00     0.139 A 
ATOM     16  C   UNL     1       0.203  44.417  54.606  1.00  0.00     0.051 A 
ATOM     17  N   UNL     1       1.617  45.658  56.074  1.00  0.00    -0.235 NA
ATOM     18  C   UNL     1       0.369  45.228  55.738  1.00  0.00     0.153 A 
BRANCH  18  19
ATOM     19  N   UNL     1      -0.759  45.601  56.549  1.00  0.00    -0.223 N 
ATOM     20  C   UNL     1      -1.859  44.853  56.767  1.00  0.00     0.117 A 
ATOM     21  N   UNL     1      -0.865  46.749  57.199  1.00  0.00    -0.175 NA
ATOM     22  C   UNL     1      -2.706  45.557  57.596  1.00  0.00     0.042 A 
ATOM     23  C   UNL     1      -2.046  46.745  57.846  1.00  0.00     0.135 A 
ENDBRANCH  18  19
ENDBRANCH   3  13
TORSDOF 4
ENDMDL
MODEL 4
REMARK VINA RESULT:    -7.179      1.946      8.112
REMARK INTER + INTRA:          -9.491
REMARK INTER:                  -9.117
REMARK INTRA:                  -0.373
REMARK UNBOUND:                -0.632
REMARK SMILES O=C(Nc1ccc(-n2cccn2)nc1)[C@H]1C[C@H]1C1CCCC1
REMARK SMILES IDX 1 1 2 2 3 3 15 5 16 6 17 7 18 8 19 9 22 10 20 11 21 12 4 13
REMARK SMILES IDX 5 14 14 15 6 16 13 17 7 18 8 19 9 20 12 21 10 22 11 23
REMARK H PARENT 3 4
ROOT
ATOM      1  O   UNL     1       2.041  44.127  52.414  1.00  0.00    -0.274 OA
ATOM      2  C   UNL     1       1.432  45.230  52.353  1.00  0.00     0.227 C 
ATOM      3  N   UNL     1       2.139  46.469  52.512  1.00  0.00    -0.324 N 
ATOM      4  H   UNL     1       1.571  47.344  52.584  1.00  0.00     0.169 HD
ENDROOT
BRANCH   2   5
ATOM      5  C   UNL     1      -0.050  45.254  52.103  1.00  0.00     0.082 C 
ATOM      6  C   UNL     1      -0.750  43.897  52.090  1.00  0.00     0.018 C 
ATOM      7  C   UNL     1      -0.964  44.846  53.264  1.00  0.00     0.005 C 
BRANCH   7   8
ATOM      8  C   UNL     1      -0.342  44.357  54.595  1.00  0.00    -0.007 C 
ATOM      9  C   UNL     1      -1.334  43.476  55.363  1.00  0.00     0.004 C 
ATOM     10  C   UNL     1      -0.016  45.543  55.518  1.00  0.00     0.004 C 
ATOM     11  C   UNL     1      -1.855  44.325  56.509  1.00  0.00     0.000 C 
ATOM     12  C   UNL     1      -0.726  45.279  56.838  1.00  0.00     0.000 C 
ENDBRANCH   7   8
ENDBRANCH   2   5
BRANCH   3  13
ATOM     13  C   UNL     1       3.555  46.569  52.738  1.00  0.00     0.059 A 
ATOM     14  C   UNL     1       4.486  46.309  51.721  1.00  0.00     0.031 A 
ATOM     15  C   UNL     1       4.028  46.995  53.985  1.00  0.00     0.139 A 
ATOM     16  C   UNL     1       5.853  46.440  51.973  1.00  0.00     0.051 A 
ATOM     17  N   UNL     1       5.363  47.115  54.209  1.00  0.00    -0.235 NA
ATOM     18  C   UNL     1       6.286  46.845  53.245  1.00  0.00     0.153 A 
BRANCH  18  19
ATOM     19  N   UNL     1       7.687  46.988  53.534  1.00  0.00    -0.223 N 
ATOM     20  C   UNL     1       8.703  46.522  52.781  1.00  0.00     0.117 A 
ATOM     21  N   UNL     1       8.170  47.608  54.600  1.00  0.00    -0.175 NA
ATOM     22  C   UNL     1       9.890  46.861  53.394  1.00  0.00     0.042 A 
ATOM     23  C   UNL     1       9.514  47.543  54.535  1.00  0.00     0.135 A 
ENDBRANCH  18  19
ENDBRANCH   3  13
TORSDOF 4
ENDMDL
MODEL 5
REMARK VINA RESULT:    -6.997      5.794      7.047
REMARK INTER + INTRA:          -9.266
REMARK INTER:                  -8.550
REMARK INTRA:                  -0.716
REMARK UNBOUND:                -0.632
REMARK SMILES O=C(Nc1ccc(-n2cccn2)nc1)[C@H]1C[C@H]1C1CCCC1
REMARK SMILES IDX 1 1 2 2 3 3 15 5 16 6 17 7 18 8 19 9 22 10 20 11 21 12 4 13
REMARK SMILES IDX 5 14 14 15 6 16 13 17 7 18 8 19 9 20 12 21 10 22 11 23
REMARK H PARENT 3 4
ROOT
ATOM      1  O   UNL     1       5.320  45.262  50.095  1.00  0.00    -0.274 OA
ATOM      2  C   UNL     1       6.273  44.733  50.731  1.00  0.00     0.227 C 
ATOM      3  N   UNL     1       6.519  43.321  50.646  1.00  0.00    -0.324 N 
ATOM      4  H   UNL     1       7.234  42.915  51.291  1.00  0.00     0.169 HD
ENDROOT
BRANCH   2   5
ATOM      5  C   UNL     1       7.171  45.588  51.582  1.00  0.00     0.082 C 
ATOM      6  C   UNL     1       6.572  46.901  52.080  1.00  0.00     0.018 C 
ATOM      7  C   UNL     1       6.791  45.751  53.058  1.00  0.00     0.005 C 
BRANCH   7   8
ATOM      8  C   UNL     1       5.483  45.114  53.588  1.00  0.00    -0.007 C 
ATOM      9  C   UNL     1       4.322  46.111  53.499  1.00  0.00     0.004 C 
ATOM     10  C   UNL     1       5.616  44.742  55.073  1.00  0.00     0.004 C 
ATOM     11  C   UNL     1       4.063  46.588  54.916  1.00  0.00     0.000 C 
ATOM     12  C   UNL     1       4.472  45.431  55.803  1.00  0.00     0.000 C 
ENDBRANCH   7   8
ENDBRANCH   2   5
BRANCH   3  13
ATOM     13  C   UNL     1       5.739  42.411  49.853  1.00  0.00     0.059 A 
ATOM     14  C   UNL     1       4.623  41.741  50.380  1.00  0.00     0.031 A 
ATOM     15  C   UNL     1       6.054  42.225  48.501  1.00  0.00     0.139 A 
ATOM     16  C   UNL     1       3.877  40.882  49.571  1.00  0.00     0.051 A 
ATOM     17  N   UNL     1       5.314  41.384  47.733  1.00  0.00    -0.235 NA
ATOM     18  C   UNL     1       4.242  40.705  48.227  1.00  0.00     0.153 A 
BRANCH  18  19
ATOM     19  N   UNL     1       3.493  39.826  47.371  1.00  0.00    -0.223 N 
ATOM     20  C   UNL     1       3.356  39.949  46.036  1.00  0.00     0.117 A 
ATOM     21  N   UNL     1       2.828  38.761  47.791  1.00  0.00    -0.175 NA
ATOM     22  C   UNL     1       2.567  38.914  45.582  1.00  0.00     0.042 A 
ATOM     23  C   UNL     1       2.254  38.189  46.716  1.00  0.00     0.135 A 
ENDBRANCH  18  19
ENDBRANCH   3  13
TORSDOF 4
ENDMDL
