ligand_26_conformer_2_docked
     RDKit          3D

 42 44  0  0  0  0  0  0  0  0999 V2000
    9.1710   47.9500   54.8220 C   0  0  0  0  0  0  0  0  0  0  0  0
    8.8630   47.2010   53.5590 C   0  0  0  0  0  0  0  0  0  0  0  0
    9.8830   46.9050   52.6470 C   0  0  0  0  0  0  0  0  0  0  0  0
    9.6030   46.1780   51.4900 C   0  0  0  0  0  0  0  0  0  0  0  0
    8.3030   45.7150   51.2290 C   0  0  0  0  0  0  0  0  0  0  0  0
    8.0470   44.9570   49.9540 C   0  0  0  0  0  0  0  0  0  0  0  0
    7.2660   46.0120   52.1480 C   0  0  0  0  0  0  0  0  0  0  0  0
    5.5910   45.5010   51.8680 S   0  0  0  0  0  0  0  0  0  0  0  0
    5.1580   45.8250   50.4650 O   0  0  0  0  0  0  0  0  0  0  0  0
    4.6940   46.2340   52.8250 O   0  0  0  0  0  0  0  0  0  0  0  0
    5.4320   43.7920   52.1210 N   0  0  0  0  0  0  0  0  0  0  0  0
    4.9410   42.8790   51.1240 C   0  0  0  0  0  0  0  0  0  0  0  0
    3.6080   42.4320   51.1170 C   0  0  0  0  0  0  0  0  0  0  0  0
    3.1590   41.5550   50.1250 C   0  0  0  0  0  0  0  0  0  0  0  0
    4.0350   41.1010   49.1240 C   0  0  0  0  0  0  0  0  0  0  0  0
    3.5820   40.1740   48.0630 C   0  0  0  0  0  0  0  0  0  0  0  0
    3.7060   40.3200   46.6940 C   0  0  0  0  0  0  0  0  0  0  0  0
    3.1600   39.2470   46.0880 N   0  0  0  0  0  0  0  0  0  0  0  0
    2.7320   38.4900   47.1190 C   0  0  0  0  0  0  0  0  0  0  0  0
    2.0250   37.1900   46.9440 C   0  0  0  0  0  0  0  0  0  0  0  0
    2.9750   39.0340   48.2890 O   0  0  0  0  0  0  0  0  0  0  0  0
    5.3690   41.5390   49.1400 C   0  0  0  0  0  0  0  0  0  0  0  0
    5.8170   42.4170   50.1310 C   0  0  0  0  0  0  0  0  0  0  0  0
    7.5630   46.7400   53.3130 C   0  0  0  0  0  0  0  0  0  0  0  0
    8.9142   47.3256   55.6905 H   0  0  0  0  0  0  0  0  0  0  0  0
   10.2429   48.1952   54.8508 H   0  0  0  0  0  0  0  0  0  0  0  0
    8.5816   48.8783   54.8508 H   0  0  0  0  0  0  0  0  0  0  0  0
   10.9097   47.2472   52.8437 H   0  0  0  0  0  0  0  0  0  0  0  0
   10.4099   45.9648   50.7735 H   0  0  0  0  0  0  0  0  0  0  0  0
    7.7036   43.9401   50.1947 H   0  0  0  0  0  0  0  0  0  0  0  0
    7.2743   45.4759   49.3678 H   0  0  0  0  0  0  0  0  0  0  0  0
    8.9761   44.9011   49.3678 H   0  0  0  0  0  0  0  0  0  0  0  0
    5.8140   43.4100   53.0140 H   0  0  0  0  0  0  0  0  0  0  0  0
    2.9132   42.7748   51.8978 H   0  0  0  0  0  0  0  0  0  0  0  0
    2.1120   41.2177   50.1280 H   0  0  0  0  0  0  0  0  0  0  0  0
    4.1744   41.1736   46.1821 H   0  0  0  0  0  0  0  0  0  0  0  0
    1.7928   36.7631   47.9309 H   0  0  0  0  0  0  0  0  0  0  0  0
    1.0911   37.3527   46.3860 H   0  0  0  0  0  0  0  0  0  0  0  0
    2.6691   36.4945   46.3860 H   0  0  0  0  0  0  0  0  0  0  0  0
    6.0674   41.1881   48.3660 H   0  0  0  0  0  0  0  0  0  0  0  0
    6.8659   42.7485   50.1321 H   0  0  0  0  0  0  0  0  0  0  0  0
    6.7652   46.9504   54.0404 H   0  0  0  0  0  0  0  0  0  0  0  0
  1  2  1  0
  2  3  2  0
  3  4  1  0
  4  5  2  0
  5  6  1  0
  5  7  1  0
  7  8  1  0
  8  9  2  0
  8 10  2  0
  8 11  1  0
 11 12  1  0
 12 13  2  0
 13 14  1  0
 14 15  2  0
 15 16  1  0
 16 17  2  0
 17 18  1  0
 18 19  2  0
 19 20  1  0
 19 21  1  0
 15 22  1  0
 22 23  2  0
  7 24  2  0
 24  2  1  0
 23 12  1  0
 21 16  1  0
  1 25  1  0
  1 26  1  0
  1 27  1  0
  3 28  1  0
  4 29  1  0
  6 30  1  0
  6 31  1  0
  6 32  1  0
 11 33  1  0
 13 34  1  0
 14 35  1  0
 17 36  1  0
 20 37  1  0
 20 38  1  0
 20 39  1  0
 22 40  1  0
 23 41  1  0
 24 42  1  0
M  END
>  <meeko>  (1) 
{"is_sidechain": [false], "free_energy": -9.117, "intermolecular_energy": -11.249, "internal_energy": -0.282}

$$$$
ligand_26_conformer_2_docked
     RDKit          3D

 42 44  0  0  0  0  0  0  0  0999 V2000
   10.5550   47.5400   55.3510 C   0  0  0  0  0  0  0  0  0  0  0  0
    9.7030   47.1120   54.1930 C   0  0  0  0  0  0  0  0  0  0  0  0
   10.2960   46.7350   52.9820 C   0  0  0  0  0  0  0  0  0  0  0  0
    9.5050   46.3030   51.9160 C   0  0  0  0  0  0  0  0  0  0  0  0
    8.1090   46.2210   52.0440 C   0  0  0  0  0  0  0  0  0  0  0  0
    7.2990   45.7740   50.8560 C   0  0  0  0  0  0  0  0  0  0  0  0
    7.5030   46.6040   53.2660 C   0  0  0  0  0  0  0  0  0  0  0  0
    5.7440   46.5700   53.4910 S   0  0  0  0  0  0  0  0  0  0  0  0
    5.0390   47.1400   52.2920 O   0  0  0  0  0  0  0  0  0  0  0  0
    5.3930   47.4040   54.6910 O   0  0  0  0  0  0  0  0  0  0  0  0
    5.1980   44.9420   53.7400 N   0  0  0  0  0  0  0  0  0  0  0  0
    3.9240   44.4490   53.2880 C   0  0  0  0  0  0  0  0  0  0  0  0
    3.8180   43.5020   52.2550 C   0  0  0  0  0  0  0  0  0  0  0  0
    2.5650   43.0330   51.8480 C   0  0  0  0  0  0  0  0  0  0  0  0
    1.3930   43.5050   52.4640 C   0  0  0  0  0  0  0  0  0  0  0  0
    0.0560   43.0210   52.0520 C   0  0  0  0  0  0  0  0  0  0  0  0
   -0.7620   42.1180   52.7060 C   0  0  0  0  0  0  0  0  0  0  0  0
   -1.8920   41.9540   51.9910 N   0  0  0  0  0  0  0  0  0  0  0  0
   -1.7140   42.7720   50.9330 C   0  0  0  0  0  0  0  0  0  0  0  0
   -2.7080   42.9160   49.8310 C   0  0  0  0  0  0  0  0  0  0  0  0
   -0.5630   43.4020   50.9610 O   0  0  0  0  0  0  0  0  0  0  0  0
    1.5010   44.4590   53.4880 C   0  0  0  0  0  0  0  0  0  0  0  0
    2.7530   44.9270   53.8940 C   0  0  0  0  0  0  0  0  0  0  0  0
    8.3110   47.0300   54.3340 C   0  0  0  0  0  0  0  0  0  0  0  0
   10.0478   47.2852   56.2933 H   0  0  0  0  0  0  0  0  0  0  0  0
   11.5241   47.0218   55.3045 H   0  0  0  0  0  0  0  0  0  0  0  0
   10.7178   48.6269   55.3045 H   0  0  0  0  0  0  0  0  0  0  0  0
   11.3894   46.7794   52.8701 H   0  0  0  0  0  0  0  0  0  0  0  0
    9.9809   46.0235   50.9645 H   0  0  0  0  0  0  0  0  0  0  0  0
    6.3854   45.2698   51.2039 H   0  0  0  0  0  0  0  0  0  0  0  0
    7.0260   46.6492   50.2481 H   0  0  0  0  0  0  0  0  0  0  0  0
    7.8939   45.0765   50.2481 H   0  0  0  0  0  0  0  0  0  0  0  0
    5.8860   44.2710   54.1480 H   0  0  0  0  0  0  0  0  0  0  0  0
    4.7275   43.1269   51.7629 H   0  0  0  0  0  0  0  0  0  0  0  0
    2.4961   42.2896   51.0402 H   0  0  0  0  0  0  0  0  0  0  0  0
   -0.5280   41.6152   53.6559 H   0  0  0  0  0  0  0  0  0  0  0  0
   -3.7110   43.0613   50.2586 H   0  0  0  0  0  0  0  0  0  0  0  0
   -2.4444   43.7853   49.2107 H   0  0  0  0  0  0  0  0  0  0  0  0
   -2.7019   42.0076   49.2107 H   0  0  0  0  0  0  0  0  0  0  0  0
    0.5918   44.8414   53.9750 H   0  0  0  0  0  0  0  0  0  0  0  0
    2.8210   45.6769   54.6959 H   0  0  0  0  0  0  0  0  0  0  0  0
    7.8451   47.3025   55.2925 H   0  0  0  0  0  0  0  0  0  0  0  0
  1  2  1  0
  2  3  2  0
  3  4  1  0
  4  5  2  0
  5  6  1  0
  5  7  1  0
  7  8  1  0
  8  9  2  0
  8 10  2  0
  8 11  1  0
 11 12  1  0
 12 13  2  0
 13 14  1  0
 14 15  2  0
 15 16  1  0
 16 17  2  0
 17 18  1  0
 18 19  2  0
 19 20  1  0
 19 21  1  0
 15 22  1  0
 22 23  2  0
  7 24  2  0
 24  2  1  0
 23 12  1  0
 21 16  1  0
  1 25  1  0
  1 26  1  0
  1 27  1  0
  3 28  1  0
  4 29  1  0
  6 30  1  0
  6 31  1  0
  6 32  1  0
 11 33  1  0
 13 34  1  0
 14 35  1  0
 17 36  1  0
 20 37  1  0
 20 38  1  0
 20 39  1  0
 22 40  1  0
 23 41  1  0
 24 42  1  0
M  END
>  <meeko>  (2) 
{"is_sidechain": [false], "free_energy": -8.986, "intermolecular_energy": -11.102, "internal_energy": -0.268}

$$$$
ligand_26_conformer_2_docked
     RDKit          3D

 42 44  0  0  0  0  0  0  0  0999 V2000
   10.3050   47.5310   55.1780 C   0  0  0  0  0  0  0  0  0  0  0  0
    9.4800   47.0970   54.0020 C   0  0  0  0  0  0  0  0  0  0  0  0
   10.1010   46.6610   52.8260 C   0  0  0  0  0  0  0  0  0  0  0  0
    9.3350   46.2240   51.7450 C   0  0  0  0  0  0  0  0  0  0  0  0
    7.9320   46.1940   51.8240 C   0  0  0  0  0  0  0  0  0  0  0  0
    7.1500   45.7380   50.6210 C   0  0  0  0  0  0  0  0  0  0  0  0
    7.2970   46.6350   53.0110 C   0  0  0  0  0  0  0  0  0  0  0  0
    5.5320   46.6700   53.1730 S   0  0  0  0  0  0  0  0  0  0  0  0
    4.8730   46.8270   51.8300 O   0  0  0  0  0  0  0  0  0  0  0  0
    5.1460   47.8410   54.0320 O   0  0  0  0  0  0  0  0  0  0  0  0
    4.9640   45.2030   53.9060 N   0  0  0  0  0  0  0  0  0  0  0  0
    3.5750   44.9140   54.1420 C   0  0  0  0  0  0  0  0  0  0  0  0
    2.7990   44.1900   53.2210 C   0  0  0  0  0  0  0  0  0  0  0  0
    1.4550   43.9140   53.4860 C   0  0  0  0  0  0  0  0  0  0  0  0
    0.8570   44.3600   54.6780 C   0  0  0  0  0  0  0  0  0  0  0  0
   -0.5640   44.0780   54.9820 C   0  0  0  0  0  0  0  0  0  0  0  0
   -1.5720   43.7350   54.1000 C   0  0  0  0  0  0  0  0  0  0  0  0
   -2.7180   43.5660   54.7890 N   0  0  0  0  0  0  0  0  0  0  0  0
   -2.3530   43.8100   56.0650 C   0  0  0  0  0  0  0  0  0  0  0  0
   -3.3050   43.7690   57.2120 C   0  0  0  0  0  0  0  0  0  0  0  0
   -1.0830   44.1170   56.1850 O   0  0  0  0  0  0  0  0  0  0  0  0
    1.6300   45.0930   55.5920 C   0  0  0  0  0  0  0  0  0  0  0  0
    2.9740   45.3680   55.3250 C   0  0  0  0  0  0  0  0  0  0  0  0
    8.0810   47.0670   54.0940 C   0  0  0  0  0  0  0  0  0  0  0  0
    9.7873   47.2587   56.1096 H   0  0  0  0  0  0  0  0  0  0  0  0
   11.2844   47.0314   55.1432 H   0  0  0  0  0  0  0  0  0  0  0  0
   10.4481   48.6211   55.1432 H   0  0  0  0  0  0  0  0  0  0  0  0
   11.1986   46.6629   52.7537 H   0  0  0  0  0  0  0  0  0  0  0  0
    9.8347   45.8993   50.8204 H   0  0  0  0  0  0  0  0  0  0  0  0
    6.2437   45.2095   50.9516 H   0  0  0  0  0  0  0  0  0  0  0  0
    6.8651   46.6115   50.0162 H   0  0  0  0  0  0  0  0  0  0  0  0
    7.7699   45.0598   50.0162 H   0  0  0  0  0  0  0  0  0  0  0  0
    5.6740   44.4590   54.0830 H   0  0  0  0  0  0  0  0  0  0  0  0
    3.2534   43.8375   52.2833 H   0  0  0  0  0  0  0  0  0  0  0  0
    0.8606   43.3438   52.7569 H   0  0  0  0  0  0  0  0  0  0  0  0
   -1.4573   43.6189   53.0122 H   0  0  0  0  0  0  0  0  0  0  0  0
   -2.7421   43.7932   58.1568 H   0  0  0  0  0  0  0  0  0  0  0  0
   -3.9762   44.6391   57.1627 H   0  0  0  0  0  0  0  0  0  0  0  0
   -3.8989   42.8444   57.1627 H   0  0  0  0  0  0  0  0  0  0  0  0
    1.1743   45.4539   56.5259 H   0  0  0  0  0  0  0  0  0  0  0  0
    3.5661   45.9461   56.0497 H   0  0  0  0  0  0  0  0  0  0  0  0
    7.5912   47.3857   55.0259 H   0  0  0  0  0  0  0  0  0  0  0  0
  1  2  1  0
  2  3  2  0
  3  4  1  0
  4  5  2  0
  5  6  1  0
  5  7  1  0
  7  8  1  0
  8  9  2  0
  8 10  2  0
  8 11  1  0
 11 12  1  0
 12 13  2  0
 13 14  1  0
 14 15  2  0
 15 16  1  0
 16 17  2  0
 17 18  1  0
 18 19  2  0
 19 20  1  0
 19 21  1  0
 15 22  1  0
 22 23  2  0
  7 24  2  0
 24  2  1  0
 23 12  1  0
 21 16  1  0
  1 25  1  0
  1 26  1  0
  1 27  1  0
  3 28  1  0
  4 29  1  0
  6 30  1  0
  6 31  1  0
  6 32  1  0
 11 33  1  0
 13 34  1  0
 14 35  1  0
 17 36  1  0
 20 37  1  0
 20 38  1  0
 20 39  1  0
 22 40  1  0
 23 41  1  0
 24 42  1  0
M  END
>  <meeko>  (3) 
{"is_sidechain": [false], "free_energy": -8.97, "intermolecular_energy": -11.402, "internal_energy": 0.052}

$$$$
ligand_26_conformer_2_docked
     RDKit          3D

 42 44  0  0  0  0  0  0  0  0999 V2000
    8.1280   44.5060   49.4010 C   0  0  0  0  0  0  0  0  0  0  0  0
    8.5720   45.2040   50.6530 C   0  0  0  0  0  0  0  0  0  0  0  0
    9.9290   45.4670   50.8710 C   0  0  0  0  0  0  0  0  0  0  0  0
   10.3390   46.1480   52.0170 C   0  0  0  0  0  0  0  0  0  0  0  0
    9.4000   46.5960   52.9610 C   0  0  0  0  0  0  0  0  0  0  0  0
    9.8950   47.3030   54.1950 C   0  0  0  0  0  0  0  0  0  0  0  0
    8.0240   46.3310   52.7470 C   0  0  0  0  0  0  0  0  0  0  0  0
    6.7820   46.8250   53.9120 S   0  0  0  0  0  0  0  0  0  0  0  0
    5.7270   47.6660   53.2480 O   0  0  0  0  0  0  0  0  0  0  0  0
    7.4300   47.6420   54.9950 O   0  0  0  0  0  0  0  0  0  0  0  0
    6.0250   45.4320   54.6150 N   0  0  0  0  0  0  0  0  0  0  0  0
    4.7100   44.9710   54.2580 C   0  0  0  0  0  0  0  0  0  0  0  0
    4.4830   44.1830   53.1170 C   0  0  0  0  0  0  0  0  0  0  0  0
    3.1940   43.7410   52.8050 C   0  0  0  0  0  0  0  0  0  0  0  0
    2.1040   44.0810   53.6250 C   0  0  0  0  0  0  0  0  0  0  0  0
    0.7310   43.6230   53.3160 C   0  0  0  0  0  0  0  0  0  0  0  0
    0.2380   42.3310   53.3410 C   0  0  0  0  0  0  0  0  0  0  0  0
   -1.0630   42.3520   52.9920 N   0  0  0  0  0  0  0  0  0  0  0  0
   -1.3070   43.6620   52.7760 C   0  0  0  0  0  0  0  0  0  0  0  0
   -2.6310   44.1870   52.3370 C   0  0  0  0  0  0  0  0  0  0  0  0
   -0.2500   44.4170   52.9620 O   0  0  0  0  0  0  0  0  0  0  0  0
    2.3320   44.8780   54.7590 C   0  0  0  0  0  0  0  0  0  0  0  0
    3.6200   45.3190   55.0700 C   0  0  0  0  0  0  0  0  0  0  0  0
    7.6250   45.6510   51.5850 C   0  0  0  0  0  0  0  0  0  0  0  0
    7.5551   43.6054   49.6668 H   0  0  0  0  0  0  0  0  0  0  0  0
    7.4939   45.1825   48.8092 H   0  0  0  0  0  0  0  0  0  0  0  0
    9.0095   44.2184   48.8092 H   0  0  0  0  0  0  0  0  0  0  0  0
   10.6760   45.1350   50.1349 H   0  0  0  0  0  0  0  0  0  0  0  0
   11.4099   46.3365   52.1836 H   0  0  0  0  0  0  0  0  0  0  0  0
    9.5281   46.7790   55.0899 H   0  0  0  0  0  0  0  0  0  0  0  0
   10.9950   47.3081   54.1983 H   0  0  0  0  0  0  0  0  0  0  0  0
    9.5235   48.3384   54.1983 H   0  0  0  0  0  0  0  0  0  0  0  0
    6.6100   44.8480   55.2540 H   0  0  0  0  0  0  0  0  0  0  0  0
    5.3259   43.9119   52.4643 H   0  0  0  0  0  0  0  0  0  0  0  0
    3.0313   43.1220   51.9104 H   0  0  0  0  0  0  0  0  0  0  0  0
    0.8148   41.4319   53.6034 H   0  0  0  0  0  0  0  0  0  0  0  0
   -3.2407   44.4288   53.2201 H   0  0  0  0  0  0  0  0  0  0  0  0
   -2.4837   45.0948   51.7335 H   0  0  0  0  0  0  0  0  0  0  0  0
   -3.1458   43.4250   51.7335 H   0  0  0  0  0  0  0  0  0  0  0  0
    1.4886   45.1572   55.4077 H   0  0  0  0  0  0  0  0  0  0  0  0
    3.7815   45.9451   55.9599 H   0  0  0  0  0  0  0  0  0  0  0  0
    6.5558   45.4667   51.4038 H   0  0  0  0  0  0  0  0  0  0  0  0
  1  2  1  0
  2  3  2  0
  3  4  1  0
  4  5  2  0
  5  6  1  0
  5  7  1  0
  7  8  1  0
  8  9  2  0
  8 10  2  0
  8 11  1  0
 11 12  1  0
 12 13  2  0
 13 14  1  0
 14 15  2  0
 15 16  1  0
 16 17  2  0
 17 18  1  0
 18 19  2  0
 19 20  1  0
 19 21  1  0
 15 22  1  0
 22 23  2  0
  7 24  2  0
 24  2  1  0
 23 12  1  0
 21 16  1  0
  1 25  1  0
  1 26  1  0
  1 27  1  0
  3 28  1  0
  4 29  1  0
  6 30  1  0
  6 31  1  0
  6 32  1  0
 11 33  1  0
 13 34  1  0
 14 35  1  0
 17 36  1  0
 20 37  1  0
 20 38  1  0
 20 39  1  0
 22 40  1  0
 23 41  1  0
 24 42  1  0
M  END
>  <meeko>  (4) 
{"is_sidechain": [false], "free_energy": -8.67, "intermolecular_energy": -11.166, "internal_energy": 0.187}

$$$$
ligand_26_conformer_2_docked
     RDKit          3D

 42 44  0  0  0  0  0  0  0  0999 V2000
    0.7700   46.1310   57.5160 C   0  0  0  0  0  0  0  0  0  0  0  0
    0.2960   45.3310   56.3380 C   0  0  0  0  0  0  0  0  0  0  0  0
   -0.8940   44.5990   56.4150 C   0  0  0  0  0  0  0  0  0  0  0  0
   -1.3530   43.8840   55.3080 C   0  0  0  0  0  0  0  0  0  0  0  0
   -0.6430   43.9010   54.0960 C   0  0  0  0  0  0  0  0  0  0  0  0
   -1.1660   43.0920   52.9390 C   0  0  0  0  0  0  0  0  0  0  0  0
    0.5640   44.6390   54.0130 C   0  0  0  0  0  0  0  0  0  0  0  0
    1.5400   44.6750   52.5330 S   0  0  0  0  0  0  0  0  0  0  0  0
    0.6750   44.5020   51.3150 O   0  0  0  0  0  0  0  0  0  0  0  0
    2.5310   43.5450   52.5780 O   0  0  0  0  0  0  0  0  0  0  0  0
    2.3890   46.1820   52.4060 N   0  0  0  0  0  0  0  0  0  0  0  0
    3.7980   46.3310   52.6590 C   0  0  0  0  0  0  0  0  0  0  0  0
    4.7620   46.0660   51.6710 C   0  0  0  0  0  0  0  0  0  0  0  0
    6.1230   46.2330   51.9450 C   0  0  0  0  0  0  0  0  0  0  0  0
    6.5480   46.6620   53.2140 C   0  0  0  0  0  0  0  0  0  0  0  0
    7.9820   46.8480   53.5270 C   0  0  0  0  0  0  0  0  0  0  0  0
    9.0610   46.7490   52.6680 C   0  0  0  0  0  0  0  0  0  0  0  0
   10.1930   46.9910   53.3570 N   0  0  0  0  0  0  0  0  0  0  0  0
    9.7510   47.2320   54.6090 C   0  0  0  0  0  0  0  0  0  0  0  0
   10.6570   47.5300   55.7550 C   0  0  0  0  0  0  0  0  0  0  0  0
    8.4460   47.1440   54.7170 O   0  0  0  0  0  0  0  0  0  0  0  0
    5.5830   46.9150   54.2030 C   0  0  0  0  0  0  0  0  0  0  0  0
    4.2240   46.7490   53.9280 C   0  0  0  0  0  0  0  0  0  0  0  0
    1.0110   45.3600   55.1330 C   0  0  0  0  0  0  0  0  0  0  0  0
    0.4709   45.6261   58.4464 H   0  0  0  0  0  0  0  0  0  0  0  0
    1.8660   46.2188   57.4825 H   0  0  0  0  0  0  0  0  0  0  0  0
    0.3206   47.1344   57.4825 H   0  0  0  0  0  0  0  0  0  0  0  0
   -1.4701   44.5871   57.3520 H   0  0  0  0  0  0  0  0  0  0  0  0
   -2.2820   43.3000   55.3854 H   0  0  0  0  0  0  0  0  0  0  0  0
   -1.7261   42.2257   53.3208 H   0  0  0  0  0  0  0  0  0  0  0  0
   -1.8313   43.7172   52.3254 H   0  0  0  0  0  0  0  0  0  0  0  0
   -0.3228   42.7420   52.3254 H   0  0  0  0  0  0  0  0  0  0  0  0
    1.8550   46.9940   52.0240 H   0  0  0  0  0  0  0  0  0  0  0  0
    4.4434   45.7247   50.6750 H   0  0  0  0  0  0  0  0  0  0  0  0
    6.8668   46.0270   51.1612 H   0  0  0  0  0  0  0  0  0  0  0  0
    9.0042   46.5111   51.5955 H   0  0  0  0  0  0  0  0  0  0  0  0
   10.1226   47.3542   56.7002 H   0  0  0  0  0  0  0  0  0  0  0  0
   11.5391   46.8746   55.7051 H   0  0  0  0  0  0  0  0  0  0  0  0
   10.9778   48.5810   55.7051 H   0  0  0  0  0  0  0  0  0  0  0  0
    5.9006   47.2467   55.2026 H   0  0  0  0  0  0  0  0  0  0  0  0
    3.4807   46.9480   54.7141 H   0  0  0  0  0  0  0  0  0  0  0  0
    1.9337   45.9547   55.0632 H   0  0  0  0  0  0  0  0  0  0  0  0
  1  2  1  0
  2  3  2  0
  3  4  1  0
  4  5  2  0
  5  6  1  0
  5  7  1  0
  7  8  1  0
  8  9  2  0
  8 10  2  0
  8 11  1  0
 11 12  1  0
 12 13  2  0
 13 14  1  0
 14 15  2  0
 15 16  1  0
 16 17  2  0
 17 18  1  0
 18 19  2  0
 19 20  1  0
 19 21  1  0
 15 22  1  0
 22 23  2  0
  7 24  2  0
 24  2  1  0
 23 12  1  0
 21 16  1  0
  1 25  1  0
  1 26  1  0
  1 27  1  0
  3 28  1  0
  4 29  1  0
  6 30  1  0
  6 31  1  0
  6 32  1  0
 11 33  1  0
 13 34  1  0
 14 35  1  0
 17 36  1  0
 20 37  1  0
 20 38  1  0
 20 39  1  0
 22 40  1  0
 23 41  1  0
 24 42  1  0
M  END
>  <meeko>  (5) 
{"is_sidechain": [false], "free_energy": -8.335, "intermolecular_energy": -10.404, "internal_energy": -0.161}

$$$$
