MODEL 1
REMARK VINA RESULT:    -7.735      0.000      0.000
REMARK INTER + INTRA:         -11.531
REMARK INTER:                 -10.900
REMARK INTRA:                  -0.631
REMARK UNBOUND:                -0.631
REMARK SMILES O=C(Nc1cccc(OCCF)c1)c1ccc(Nc2ncccn2)cc1
REMARK SMILES IDX 4 1 5 2 6 3 7 4 8 5 13 6 3 7 1 8 2 9 14 11 15 12 26 13 16 14
REMARK SMILES IDX 25 15 17 16 18 17 19 19 20 20 24 21 21 22 23 23 22 24 9 25
REMARK SMILES IDX 10 26 11 27 12 28
REMARK H PARENT 3 10 18 18
ROOT
ATOM      1  C   UNL     1      -0.080  44.427  54.902  1.00  0.00     0.045 A 
ATOM      2  C   UNL     1      -1.264  43.741  54.597  1.00  0.00     0.026 A 
ATOM      3  C   UNL     1      -2.385  43.865  55.420  1.00  0.00     0.006 A 
ATOM      4  C   UNL     1      -2.332  44.665  56.564  1.00  0.00     0.046 A 
ATOM      5  C   UNL     1      -1.144  45.343  56.899  1.00  0.00     0.121 A 
ATOM      6  C   UNL     1      -0.025  45.214  56.068  1.00  0.00     0.072 A 
ENDROOT
BRANCH   1   7
ATOM      7  N   UNL     1       1.068  44.266  54.052  1.00  0.00    -0.322 N 
ATOM      8  O   UNL     1       0.410  45.754  52.375  1.00  0.00    -0.269 OA
ATOM      9  C   UNL     1       1.347  45.109  52.920  1.00  0.00     0.255 C 
ATOM     10  H   UNL     1       1.669  43.423  54.194  1.00  0.00     0.170 HD
BRANCH   9  11
ATOM     11  C   UNL     1       2.715  45.192  52.352  1.00  0.00     0.040 A 
ATOM     12  C   UNL     1       2.970  46.009  51.236  1.00  0.00     0.016 A 
ATOM     13  C   UNL     1       3.780  44.472  52.922  1.00  0.00     0.016 A 
ATOM     14  C   UNL     1       4.256  46.098  50.698  1.00  0.00     0.027 A 
ATOM     15  C   UNL     1       5.067  44.562  52.383  1.00  0.00     0.027 A 
ATOM     16  C   UNL     1       5.320  45.389  51.279  1.00  0.00     0.041 A 
BRANCH  16  17
ATOM     17  N   UNL     1       6.648  45.445  50.731  1.00  0.00    -0.324 N 
ATOM     18  H   UNL     1       6.820  44.986  49.809  1.00  0.00     0.170 HD
BRANCH  17  19
ATOM     19  C   UNL     1       7.782  45.998  51.416  1.00  0.00     0.227 A 
ATOM     20  N   UNL     1       9.035  45.604  51.063  1.00  0.00    -0.221 NA
ATOM     21  N   UNL     1       7.617  46.870  52.449  1.00  0.00    -0.221 NA
ATOM     22  C   UNL     1      10.129  46.084  51.710  1.00  0.00     0.117 A 
ATOM     23  C   UNL     1       8.685  47.372  53.121  1.00  0.00     0.117 A 
ATOM     24  C   UNL     1       9.976  46.987  52.760  1.00  0.00     0.040 A 
ENDBRANCH  17  19
ENDBRANCH  16  17
ENDBRANCH   9  11
ENDBRANCH   1   7
BRANCH   5  25
ATOM     25  O   UNL     1      -1.033  46.145  58.044  1.00  0.00    -0.491 OA
BRANCH  25  26
ATOM     26  C   UNL     1      -1.247  47.555  58.064  1.00  0.00     0.263 C 
BRANCH  26  27
ATOM     27  C   UNL     1      -0.517  48.164  59.252  1.00  0.00     0.256 C 
ATOM     28  F   UNL     1       0.725  47.574  59.397  1.00  0.00    -0.247 F 
ENDBRANCH  26  27
ENDBRANCH  25  26
ENDBRANCH   5  25
TORSDOF 7
ENDMDL
MODEL 2
REMARK VINA RESULT:    -7.674      3.483      9.195
REMARK INTER + INTRA:         -11.445
REMARK INTER:                 -11.215
REMARK INTRA:                  -0.230
REMARK UNBOUND:                -0.631
REMARK SMILES O=C(Nc1cccc(OCCF)c1)c1ccc(Nc2ncccn2)cc1
REMARK SMILES IDX 4 1 5 2 6 3 7 4 8 5 13 6 3 7 1 8 2 9 14 11 15 12 26 13 16 14
REMARK SMILES IDX 25 15 17 16 18 17 19 19 20 20 24 21 21 22 23 23 22 24 9 25
REMARK SMILES IDX 10 26 11 27 12 28
REMARK H PARENT 3 10 18 18
ROOT
ATOM      1  C   UNL     1       5.448  45.410  51.694  1.00  0.00     0.045 A 
ATOM      2  C   UNL     1       5.686  44.481  50.670  1.00  0.00     0.026 A 
ATOM      3  C   UNL     1       6.931  44.425  50.042  1.00  0.00     0.006 A 
ATOM      4  C   UNL     1       7.948  45.306  50.418  1.00  0.00     0.046 A 
ATOM      5  C   UNL     1       7.720  46.260  51.427  1.00  0.00     0.121 A 
ATOM      6  C   UNL     1       6.469  46.309  52.054  1.00  0.00     0.072 A 
ENDROOT
BRANCH   1   7
ATOM      7  N   UNL     1       4.151  45.463  52.311  1.00  0.00    -0.322 N 
ATOM      8  O   UNL     1       3.921  43.175  52.723  1.00  0.00    -0.269 OA
ATOM      9  C   UNL     1       3.543  44.349  52.988  1.00  0.00     0.255 C 
ATOM     10  H   UNL     1       3.571  46.319  52.160  1.00  0.00     0.170 HD
BRANCH   9  11
ATOM     11  C   UNL     1       2.442  44.557  53.960  1.00  0.00     0.040 A 
ATOM     12  C   UNL     1       2.680  45.248  55.162  1.00  0.00     0.016 A 
ATOM     13  C   UNL     1       1.145  44.084  53.696  1.00  0.00     0.016 A 
ATOM     14  C   UNL     1       1.648  45.454  56.081  1.00  0.00     0.027 A 
ATOM     15  C   UNL     1       0.113  44.291  54.616  1.00  0.00     0.027 A 
ATOM     16  C   UNL     1       0.349  44.993  55.806  1.00  0.00     0.041 A 
BRANCH  16  17
ATOM     17  N   UNL     1      -0.725  45.172  56.745  1.00  0.00    -0.324 N 
ATOM     18  H   UNL     1      -1.364  44.364  56.921  1.00  0.00     0.170 HD
BRANCH  17  19
ATOM     19  C   UNL     1      -1.046  46.420  57.376  1.00  0.00     0.227 A 
ATOM     20  N   UNL     1      -0.329  46.827  58.458  1.00  0.00    -0.221 NA
ATOM     21  N   UNL     1      -2.093  47.174  56.940  1.00  0.00    -0.221 NA
ATOM     22  C   UNL     1      -0.624  47.988  59.098  1.00  0.00     0.117 A 
ATOM     23  C   UNL     1      -2.419  48.341  57.553  1.00  0.00     0.117 A 
ATOM     24  C   UNL     1      -1.683  48.778  58.654  1.00  0.00     0.040 A 
ENDBRANCH  17  19
ENDBRANCH  16  17
ENDBRANCH   9  11
ENDBRANCH   1   7
BRANCH   5  25
ATOM     25  O   UNL     1       8.702  47.177  51.831  1.00  0.00    -0.491 OA
BRANCH  25  26
ATOM     26  C   UNL     1       9.789  46.863  52.701  1.00  0.00     0.263 C 
BRANCH  26  27
ATOM     27  C   UNL     1       9.563  47.519  54.055  1.00  0.00     0.256 C 
ATOM     28  F   UNL     1      10.617  47.229  54.902  1.00  0.00    -0.247 F 
ENDBRANCH  26  27
ENDBRANCH  25  26
ENDBRANCH   5  25
TORSDOF 7
ENDMDL
MODEL 3
REMARK VINA RESULT:    -7.561      3.676      9.512
REMARK INTER + INTRA:         -11.286
REMARK INTER:                 -10.649
REMARK INTRA:                  -0.637
REMARK UNBOUND:                -0.631
REMARK SMILES O=C(Nc1cccc(OCCF)c1)c1ccc(Nc2ncccn2)cc1
REMARK SMILES IDX 4 1 5 2 6 3 7 4 8 5 13 6 3 7 1 8 2 9 14 11 15 12 26 13 16 14
REMARK SMILES IDX 25 15 17 16 18 17 19 19 20 20 24 21 21 22 23 23 22 24 9 25
REMARK SMILES IDX 10 26 11 27 12 28
REMARK H PARENT 3 10 18 18
ROOT
ATOM      1  C   UNL     1       5.664  44.254  50.778  1.00  0.00     0.045 A 
ATOM      2  C   UNL     1       6.219  43.275  49.941  1.00  0.00     0.026 A 
ATOM      3  C   UNL     1       7.507  43.434  49.427  1.00  0.00     0.006 A 
ATOM      4  C   UNL     1       8.250  44.577  49.730  1.00  0.00     0.046 A 
ATOM      5  C   UNL     1       7.700  45.581  50.550  1.00  0.00     0.121 A 
ATOM      6  C   UNL     1       6.408  45.414  51.063  1.00  0.00     0.072 A 
ENDROOT
BRANCH   1   7
ATOM      7  N   UNL     1       4.327  44.079  51.279  1.00  0.00    -0.322 N 
ATOM      8  O   UNL     1       4.842  44.202  53.555  1.00  0.00    -0.269 OA
ATOM      9  C   UNL     1       3.959  44.274  52.656  1.00  0.00     0.255 C 
ATOM     10  H   UNL     1       3.611  43.678  50.632  1.00  0.00     0.170 HD
BRANCH   9  11
ATOM     11  C   UNL     1       2.546  44.509  53.039  1.00  0.00     0.040 A 
ATOM     12  C   UNL     1       1.550  44.601  52.051  1.00  0.00     0.016 A 
ATOM     13  C   UNL     1       2.173  44.631  54.390  1.00  0.00     0.016 A 
ATOM     14  C   UNL     1       0.215  44.817  52.403  1.00  0.00     0.027 A 
ATOM     15  C   UNL     1       0.837  44.847  54.741  1.00  0.00     0.027 A 
ATOM     16  C   UNL     1      -0.155  44.923  53.754  1.00  0.00     0.041 A 
BRANCH  16  17
ATOM     17  N   UNL     1      -1.518  45.169  54.142  1.00  0.00    -0.324 N 
ATOM     18  H   UNL     1      -2.135  45.682  53.473  1.00  0.00     0.170 HD
BRANCH  17  19
ATOM     19  C   UNL     1      -2.059  44.851  55.432  1.00  0.00     0.227 A 
ATOM     20  N   UNL     1      -2.314  43.553  55.751  1.00  0.00    -0.221 NA
ATOM     21  N   UNL     1      -2.372  45.836  56.320  1.00  0.00    -0.221 NA
ATOM     22  C   UNL     1      -2.854  43.220  56.952  1.00  0.00     0.117 A 
ATOM     23  C   UNL     1      -2.913  45.542  57.531  1.00  0.00     0.117 A 
ATOM     24  C   UNL     1      -3.166  44.215  57.876  1.00  0.00     0.040 A 
ENDBRANCH  17  19
ENDBRANCH  16  17
ENDBRANCH   9  11
ENDBRANCH   1   7
BRANCH   5  25
ATOM     25  O   UNL     1       8.397  46.754  50.872  1.00  0.00    -0.491 OA
BRANCH  25  26
ATOM     26  C   UNL     1       8.503  47.293  52.188  1.00  0.00     0.263 C 
BRANCH  26  27
ATOM     27  C   UNL     1       9.726  46.711  52.881  1.00  0.00     0.256 C 
ATOM     28  F   UNL     1      10.721  46.459  51.953  1.00  0.00    -0.247 F 
ENDBRANCH  26  27
ENDBRANCH  25  26
ENDBRANCH   5  25
TORSDOF 7
ENDMDL
MODEL 4
REMARK VINA RESULT:    -7.488      3.393      9.349
REMARK INTER + INTRA:         -11.183
REMARK INTER:                 -10.537
REMARK INTRA:                  -0.646
REMARK UNBOUND:                -0.631
REMARK SMILES O=C(Nc1cccc(OCCF)c1)c1ccc(Nc2ncccn2)cc1
REMARK SMILES IDX 4 1 5 2 6 3 7 4 8 5 13 6 3 7 1 8 2 9 14 11 15 12 26 13 16 14
REMARK SMILES IDX 25 15 17 16 18 17 19 19 20 20 24 21 21 22 23 23 22 24 9 25
REMARK SMILES IDX 10 26 11 27 12 28
REMARK H PARENT 3 10 18 18
ROOT
ATOM      1  C   UNL     1       6.204  46.191  51.890  1.00  0.00     0.045 A 
ATOM      2  C   UNL     1       6.979  45.632  50.864  1.00  0.00     0.026 A 
ATOM      3  C   UNL     1       8.333  45.950  50.748  1.00  0.00     0.006 A 
ATOM      4  C   UNL     1       8.926  46.841  51.646  1.00  0.00     0.046 A 
ATOM      5  C   UNL     1       8.157  47.429  52.669  1.00  0.00     0.121 A 
ATOM      6  C   UNL     1       6.800  47.104  52.779  1.00  0.00     0.072 A 
ENDROOT
BRANCH   1   7
ATOM      7  N   UNL     1       4.806  45.864  51.976  1.00  0.00    -0.322 N 
ATOM      8  O   UNL     1       4.988  44.193  53.598  1.00  0.00    -0.269 OA
ATOM      9  C   UNL     1       4.246  45.014  52.992  1.00  0.00     0.255 C 
ATOM     10  H   UNL     1       4.184  46.166  51.192  1.00  0.00     0.170 HD
BRANCH   9  11
ATOM     11  C   UNL     1       2.796  45.054  53.303  1.00  0.00     0.040 A 
ATOM     12  C   UNL     1       2.354  44.931  54.633  1.00  0.00     0.016 A 
ATOM     13  C   UNL     1       1.842  45.229  52.286  1.00  0.00     0.016 A 
ATOM     14  C   UNL     1       0.991  44.973  54.936  1.00  0.00     0.027 A 
ATOM     15  C   UNL     1       0.478  45.271  52.591  1.00  0.00     0.027 A 
ATOM     16  C   UNL     1       0.042  45.163  53.918  1.00  0.00     0.041 A 
BRANCH  16  17
ATOM     17  N   UNL     1      -1.368  45.187  54.201  1.00  0.00    -0.324 N 
ATOM     18  H   UNL     1      -2.007  45.597  53.484  1.00  0.00     0.170 HD
BRANCH  17  19
ATOM     19  C   UNL     1      -1.947  44.783  55.451  1.00  0.00     0.227 A 
ATOM     20  N   UNL     1      -2.210  43.467  55.673  1.00  0.00    -0.221 NA
ATOM     21  N   UNL     1      -2.286  45.705  56.394  1.00  0.00    -0.221 NA
ATOM     22  C   UNL     1      -2.785  43.053  56.832  1.00  0.00     0.117 A 
ATOM     23  C   UNL     1      -2.862  45.331  57.565  1.00  0.00     0.117 A 
ATOM     24  C   UNL     1      -3.124  43.984  57.812  1.00  0.00     0.040 A 
ENDBRANCH  17  19
ENDBRANCH  16  17
ENDBRANCH   9  11
ENDBRANCH   1   7
BRANCH   5  25
ATOM     25  O   UNL     1       8.699  48.341  53.587  1.00  0.00    -0.491 OA
BRANCH  25  26
ATOM     26  C   UNL     1       9.044  48.020  54.933  1.00  0.00     0.263 C 
BRANCH  26  27
ATOM     27  C   UNL     1      10.309  47.175  54.948  1.00  0.00     0.256 C 
ATOM     28  F   UNL     1      10.991  47.365  56.136  1.00  0.00    -0.247 F 
ENDBRANCH  26  27
ENDBRANCH  25  26
ENDBRANCH   5  25
TORSDOF 7
ENDMDL
MODEL 5
REMARK VINA RESULT:    -7.404      3.776      9.839
REMARK INTER + INTRA:         -11.064
REMARK INTER:                 -10.444
REMARK INTRA:                  -0.620
REMARK UNBOUND:                -0.631
REMARK SMILES O=C(Nc1cccc(OCCF)c1)c1ccc(Nc2ncccn2)cc1
REMARK SMILES IDX 4 1 5 2 6 3 7 4 8 5 13 6 3 7 1 8 2 9 14 11 15 12 26 13 16 14
REMARK SMILES IDX 25 15 17 16 18 17 19 19 20 20 24 21 21 22 23 23 22 24 9 25
REMARK SMILES IDX 10 26 11 27 12 28
REMARK H PARENT 3 10 18 18
ROOT
ATOM      1  C   UNL     1       7.311  46.403  53.726  1.00  0.00     0.045 A 
ATOM      2  C   UNL     1       8.133  47.172  54.562  1.00  0.00     0.026 A 
ATOM      3  C   UNL     1       9.415  47.540  54.150  1.00  0.00     0.006 A 
ATOM      4  C   UNL     1       9.896  47.133  52.904  1.00  0.00     0.046 A 
ATOM      5  C   UNL     1       9.095  46.340  52.060  1.00  0.00     0.121 A 
ATOM      6  C   UNL     1       7.810  45.977  52.480  1.00  0.00     0.072 A 
ENDROOT
BRANCH   1   7
ATOM      7  N   UNL     1       6.003  46.018  54.181  1.00  0.00    -0.322 N 
ATOM      8  O   UNL     1       4.909  48.020  53.677  1.00  0.00    -0.269 OA
ATOM      9  C   UNL     1       4.814  46.788  53.935  1.00  0.00     0.255 C 
ATOM     10  H   UNL     1       5.930  45.196  54.822  1.00  0.00     0.170 HD
BRANCH   9  11
ATOM     11  C   UNL     1       3.471  46.166  54.030  1.00  0.00     0.040 A 
ATOM     12  C   UNL     1       3.100  45.453  55.184  1.00  0.00     0.016 A 
ATOM     13  C   UNL     1       2.542  46.285  52.980  1.00  0.00     0.016 A 
ATOM     14  C   UNL     1       1.835  44.868  55.284  1.00  0.00     0.027 A 
ATOM     15  C   UNL     1       1.277  45.700  53.082  1.00  0.00     0.027 A 
ATOM     16  C   UNL     1       0.905  45.003  54.239  1.00  0.00     0.041 A 
BRANCH  16  17
ATOM     17  N   UNL     1      -0.394  44.391  54.308  1.00  0.00    -0.324 N 
ATOM     18  H   UNL     1      -0.759  43.914  53.453  1.00  0.00     0.170 HD
BRANCH  17  19
ATOM     19  C   UNL     1      -1.272  44.485  55.439  1.00  0.00     0.227 A 
ATOM     20  N   UNL     1      -1.988  43.395  55.824  1.00  0.00    -0.221 NA
ATOM     21  N   UNL     1      -1.438  45.666  56.097  1.00  0.00    -0.221 NA
ATOM     22  C   UNL     1      -2.851  43.457  56.872  1.00  0.00     0.117 A 
ATOM     23  C   UNL     1      -2.291  45.768  57.150  1.00  0.00     0.117 A 
ATOM     24  C   UNL     1      -3.020  44.655  57.564  1.00  0.00     0.040 A 
ENDBRANCH  17  19
ENDBRANCH  16  17
ENDBRANCH   9  11
ENDBRANCH   1   7
BRANCH   5  25
ATOM     25  O   UNL     1       9.536  45.892  50.807  1.00  0.00    -0.491 OA
BRANCH  25  26
ATOM     26  C   UNL     1       9.549  44.526  50.398  1.00  0.00     0.263 C 
BRANCH  26  27
ATOM     27  C   UNL     1       8.486  44.302  49.333  1.00  0.00     0.256 C 
ATOM     28  F   UNL     1       7.899  43.061  49.503  1.00  0.00    -0.247 F 
ENDBRANCH  26  27
ENDBRANCH  25  26
ENDBRANCH   5  25
TORSDOF 7
ENDMDL
