ligand_42_conformer_1_docked
     RDKit          3D

 47 49  0  0  0  0  0  0  0  0999 V2000
    0.4580   44.9510   55.3650 C   0  0  0  0  0  0  0  0  0  0  0  0
    1.3000   44.0320   54.6920 O   0  0  0  0  0  0  0  0  0  0  0  0
    1.5380   44.4030   53.3380 C   0  0  1  0  0  0  0  0  0  0  0  0
    2.3880   45.6670   53.2220 C   0  0  0  0  0  0  0  0  0  0  0  0
    1.9990   46.7790   52.5590 N   0  0  0  0  0  0  0  0  0  0  0  0
    3.0100   47.6360   52.5930 N   0  0  0  0  0  0  0  0  0  0  0  0
    4.0040   47.0310   53.2670 C   0  0  0  0  0  0  0  0  0  0  0  0
    3.6480   45.8090   53.6860 N   0  0  0  0  0  0  0  0  0  0  0  0
    4.5510   44.8490   54.3160 C   0  0  0  0  0  0  0  0  0  0  0  0
    5.6720   45.5990   55.0440 C   0  0  0  0  0  0  0  0  0  0  0  0
    6.2470   46.6490   54.1810 N   0  0  0  0  0  0  0  0  0  0  0  0
    7.6620   46.9190   54.2070 C   0  0  0  0  0  0  0  0  0  0  0  0
    8.1280   47.7700   55.0140 O   0  0  0  0  0  0  0  0  0  0  0  0
    8.5140   46.2270   53.3290 O   0  0  0  0  0  0  0  0  0  0  0  0
    8.7770   46.5610   51.9580 C   0  0  0  0  0  0  0  0  0  0  0  0
   10.2490   46.2170   51.6830 C   0  0  0  0  0  0  0  0  0  0  0  0
    8.5640   48.0670   51.7130 C   0  0  0  0  0  0  0  0  0  0  0  0
    7.8880   45.7260   51.0160 C   0  0  0  0  0  0  0  0  0  0  0  0
    5.3600   47.6170   53.5060 C   0  0  0  0  0  0  0  0  0  0  0  0
    2.2390   43.2670   52.6280 C   0  0  0  0  0  0  0  0  0  0  0  0
    1.7150   43.3510   51.2050 C   0  0  0  0  0  0  0  0  0  0  0  0
    0.5310   44.1140   51.1840 O   0  0  0  0  0  0  0  0  0  0  0  0
    0.2460   44.4780   52.5140 C   0  0  0  0  0  0  0  0  0  0  0  0
    0.5729   44.8256   56.4518 H   0  0  0  0  0  0  0  0  0  0  0  0
    0.7358   45.9773   55.0829 H   0  0  0  0  0  0  0  0  0  0  0  0
   -0.5886   44.7638   55.0829 H   0  0  0  0  0  0  0  0  0  0  0  0
    3.9898   44.2382   55.0385 H   0  0  0  0  0  0  0  0  0  0  0  0
    4.9881   44.1979   53.5446 H   0  0  0  0  0  0  0  0  0  0  0  0
    5.2635   46.0635   55.9536 H   0  0  0  0  0  0  0  0  0  0  0  0
    6.4652   44.8822   55.3030 H   0  0  0  0  0  0  0  0  0  0  0  0
   10.7810   46.0927   52.6377 H   0  0  0  0  0  0  0  0  0  0  0  0
   10.3055   45.2814   51.1072 H   0  0  0  0  0  0  0  0  0  0  0  0
   10.7143   47.0306   51.1072 H   0  0  0  0  0  0  0  0  0  0  0  0
    8.4902   48.5887   52.6786 H   0  0  0  0  0  0  0  0  0  0  0  0
    9.4141   48.4696   51.1427 H   0  0  0  0  0  0  0  0  0  0  0  0
    7.6356   48.2180   51.1427 H   0  0  0  0  0  0  0  0  0  0  0  0
    7.2144   45.0933   51.6127 H   0  0  0  0  0  0  0  0  0  0  0  0
    7.2926   46.3990   50.3815 H   0  0  0  0  0  0  0  0  0  0  0  0
    8.5224   45.0897   50.3815 H   0  0  0  0  0  0  0  0  0  0  0  0
    5.2582   48.5118   54.1377 H   0  0  0  0  0  0  0  0  0  0  0  0
    5.8037   47.8778   52.5338 H   0  0  0  0  0  0  0  0  0  0  0  0
    3.3302   43.4035   52.6525 H   0  0  0  0  0  0  0  0  0  0  0  0
    2.0465   42.2900   53.0953 H   0  0  0  0  0  0  0  0  0  0  0  0
    2.4704   43.8289   50.5639 H   0  0  0  0  0  0  0  0  0  0  0  0
    1.5046   42.3379   50.8318 H   0  0  0  0  0  0  0  0  0  0  0  0
   -0.1489   45.5043   52.5393 H   0  0  0  0  0  0  0  0  0  0  0  0
   -0.5046   43.7929   52.9350 H   0  0  0  0  0  0  0  0  0  0  0  0
  1  2  1  0
  3  2  1  1
  3  4  1  0
  4  5  2  0
  5  6  1  0
  6  7  2  0
  7  8  1  0
  8  9  1  0
  9 10  1  0
 10 11  1  0
 11 12  1  0
 12 13  2  0
 12 14  1  0
 14 15  1  0
 15 16  1  0
 15 17  1  0
 15 18  1  0
 11 19  1  0
  3 20  1  0
 20 21  1  0
 21 22  1  0
 22 23  1  0
 23  3  1  0
  8  4  1  0
 19  7  1  0
  1 24  1  0
  1 25  1  0
  1 26  1  0
  9 27  1  0
  9 28  1  0
 10 29  1  0
 10 30  1  0
 16 31  1  0
 16 32  1  0
 16 33  1  0
 17 34  1  0
 17 35  1  0
 17 36  1  0
 18 37  1  0
 18 38  1  0
 18 39  1  0
 19 40  1  0
 19 41  1  0
 20 42  1  0
 20 43  1  0
 21 44  1  0
 21 45  1  0
 23 46  1  0
 23 47  1  0
M  END
>  <meeko>  (1) 
{"is_sidechain": [false], "free_energy": -8.135, "intermolecular_energy": -10.513, "internal_energy": -0.5}

$$$$
ligand_42_conformer_1_docked
     RDKit          3D

 47 49  0  0  0  0  0  0  0  0999 V2000
    1.9050   42.9130   50.8710 C   0  0  0  0  0  0  0  0  0  0  0  0
    2.3010   43.1000   52.2180 O   0  0  0  0  0  0  0  0  0  0  0  0
    1.5780   44.1470   52.8570 C   0  0  1  0  0  0  0  0  0  0  0  0
    2.3670   45.4540   52.9070 C   0  0  0  0  0  0  0  0  0  0  0  0
    1.9390   46.6150   52.3620 N   0  0  0  0  0  0  0  0  0  0  0  0
    2.9050   47.5080   52.5180 N   0  0  0  0  0  0  0  0  0  0  0  0
    3.9130   46.8770   53.1480 C   0  0  0  0  0  0  0  0  0  0  0  0
    3.6080   45.6010   53.4170 N   0  0  0  0  0  0  0  0  0  0  0  0
    4.5430   44.6180   53.9600 C   0  0  0  0  0  0  0  0  0  0  0  0
    5.6100   45.3310   54.7970 C   0  0  0  0  0  0  0  0  0  0  0  0
    6.1510   46.4980   54.0730 N   0  0  0  0  0  0  0  0  0  0  0  0
    7.5510   46.8280   54.1680 C   0  0  0  0  0  0  0  0  0  0  0  0
    7.9450   47.6750   55.0170 O   0  0  0  0  0  0  0  0  0  0  0  0
    8.4690   46.2000   53.3080 O   0  0  0  0  0  0  0  0  0  0  0  0
    8.7480   46.5640   51.9480 C   0  0  0  0  0  0  0  0  0  0  0  0
   10.2270   46.2350   51.6870 C   0  0  0  0  0  0  0  0  0  0  0  0
    8.5300   48.0740   51.7320 C   0  0  0  0  0  0  0  0  0  0  0  0
    7.8770   45.7440   50.9770 C   0  0  0  0  0  0  0  0  0  0  0  0
    5.2330   47.4940   53.4880 C   0  0  0  0  0  0  0  0  0  0  0  0
    0.2810   44.3780   52.1140 C   0  0  0  0  0  0  0  0  0  0  0  0
   -0.6920   44.7910   53.2050 C   0  0  0  0  0  0  0  0  0  0  0  0
   -0.1820   44.4050   54.4610 O   0  0  0  0  0  0  0  0  0  0  0  0
    1.0310   43.7300   54.2290 C   0  0  0  0  0  0  0  0  0  0  0  0
    0.9106   42.4434   50.8430 H   0  0  0  0  0  0  0  0  0  0  0  0
    1.8649   43.8873   50.3620 H   0  0  0  0  0  0  0  0  0  0  0  0
    2.6319   42.2630   50.3620 H   0  0  0  0  0  0  0  0  0  0  0  0
    3.9966   43.9045   54.5943 H   0  0  0  0  0  0  0  0  0  0  0  0
    5.0277   44.0791   53.1326 H   0  0  0  0  0  0  0  0  0  0  0  0
    5.1602   45.6697   55.7420 H   0  0  0  0  0  0  0  0  0  0  0  0
    6.4317   44.6269   54.9947 H   0  0  0  0  0  0  0  0  0  0  0  0
   10.7516   46.1183   52.6468 H   0  0  0  0  0  0  0  0  0  0  0  0
   10.2988   45.2989   51.1137 H   0  0  0  0  0  0  0  0  0  0  0  0
   10.6888   47.0524   51.1137 H   0  0  0  0  0  0  0  0  0  0  0  0
    8.4574   48.5772   52.7074 H   0  0  0  0  0  0  0  0  0  0  0  0
    9.3774   48.4897   51.1672 H   0  0  0  0  0  0  0  0  0  0  0  0
    7.5996   48.2330   51.1672 H   0  0  0  0  0  0  0  0  0  0  0  0
    7.1938   45.1008   51.5511 H   0  0  0  0  0  0  0  0  0  0  0  0
    7.2920   46.4268   50.3433 H   0  0  0  0  0  0  0  0  0  0  0  0
    8.5233   45.1189   50.3433 H   0  0  0  0  0  0  0  0  0  0  0  0
    5.0739   48.3054   54.2135 H   0  0  0  0  0  0  0  0  0  0  0  0
    5.6843   47.8841   52.5638 H   0  0  0  0  0  0  0  0  0  0  0  0
    0.3943   45.1772   51.3667 H   0  0  0  0  0  0  0  0  0  0  0  0
   -0.0548   43.4905   51.5577 H   0  0  0  0  0  0  0  0  0  0  0  0
   -0.8252   45.8827   53.1833 H   0  0  0  0  0  0  0  0  0  0  0  0
   -1.6616   44.2995   53.0365 H   0  0  0  0  0  0  0  0  0  0  0  0
    1.7567   43.9953   55.0119 H   0  0  0  0  0  0  0  0  0  0  0  0
    0.8621   42.6432   54.2480 H   0  0  0  0  0  0  0  0  0  0  0  0
  1  2  1  0
  3  2  1  6
  3  4  1  0
  4  5  2  0
  5  6  1  0
  6  7  2  0
  7  8  1  0
  8  9  1  0
  9 10  1  0
 10 11  1  0
 11 12  1  0
 12 13  2  0
 12 14  1  0
 14 15  1  0
 15 16  1  0
 15 17  1  0
 15 18  1  0
 11 19  1  0
  3 20  1  0
 20 21  1  0
 21 22  1  0
 22 23  1  0
 23  3  1  0
  8  4  1  0
 19  7  1  0
  1 24  1  0
  1 25  1  0
  1 26  1  0
  9 27  1  0
  9 28  1  0
 10 29  1  0
 10 30  1  0
 16 31  1  0
 16 32  1  0
 16 33  1  0
 17 34  1  0
 17 35  1  0
 17 36  1  0
 18 37  1  0
 18 38  1  0
 18 39  1  0
 19 40  1  0
 19 41  1  0
 20 42  1  0
 20 43  1  0
 21 44  1  0
 21 45  1  0
 23 46  1  0
 23 47  1  0
M  END
>  <meeko>  (2) 
{"is_sidechain": [false], "free_energy": -7.955, "intermolecular_energy": -10.279, "internal_energy": -0.501}

$$$$
ligand_42_conformer_1_docked
     RDKit          3D

 47 49  0  0  0  0  0  0  0  0999 V2000
   -0.4020   44.7020   55.0340 C   0  0  0  0  0  0  0  0  0  0  0  0
    0.6220   43.8290   54.5920 O   0  0  0  0  0  0  0  0  0  0  0  0
    0.7730   43.8390   53.1760 C   0  0  1  0  0  0  0  0  0  0  0  0
    2.2350   43.7300   52.7460 C   0  0  0  0  0  0  0  0  0  0  0  0
    2.7450   42.6790   52.0660 N   0  0  0  0  0  0  0  0  0  0  0  0
    4.0490   42.8820   51.9390 N   0  0  0  0  0  0  0  0  0  0  0  0
    4.3170   44.0490   52.5520 C   0  0  0  0  0  0  0  0  0  0  0  0
    3.2100   44.6120   53.0550 N   0  0  0  0  0  0  0  0  0  0  0  0
    3.1920   45.8030   53.9000 C   0  0  0  0  0  0  0  0  0  0  0  0
    4.4040   46.6830   53.5740 C   0  0  0  0  0  0  0  0  0  0  0  0
    5.6380   45.8750   53.5170 N   0  0  0  0  0  0  0  0  0  0  0  0
    6.8790   46.4060   54.0190 C   0  0  0  0  0  0  0  0  0  0  0  0
    6.8730   47.2450   54.9620 O   0  0  0  0  0  0  0  0  0  0  0  0
    8.0930   45.9820   53.4500 O   0  0  0  0  0  0  0  0  0  0  0  0
    9.0920   46.8210   52.8510 C   0  0  0  0  0  0  0  0  0  0  0  0
    9.9450   47.3940   53.9940 C   0  0  0  0  0  0  0  0  0  0  0  0
    8.4380   47.9870   52.0860 C   0  0  0  0  0  0  0  0  0  0  0  0
   10.0010   45.9990   51.9170 C   0  0  0  0  0  0  0  0  0  0  0  0
    5.6800   44.6500   52.6960 C   0  0  0  0  0  0  0  0  0  0  0  0
   -0.0050   42.6850   52.5860 C   0  0  0  0  0  0  0  0  0  0  0  0
   -0.4790   43.2160   51.2450 C   0  0  0  0  0  0  0  0  0  0  0  0
   -0.4020   44.6230   51.2420 O   0  0  0  0  0  0  0  0  0  0  0  0
    0.0450   45.0180   52.5170 C   0  0  0  0  0  0  0  0  0  0  0  0
   -0.4208   44.7180   56.1337 H   0  0  0  0  0  0  0  0  0  0  0  0
   -0.2075   45.7165   54.6558 H   0  0  0  0  0  0  0  0  0  0  0  0
   -1.3729   44.3495   54.6558 H   0  0  0  0  0  0  0  0  0  0  0  0
    2.2676   46.3696   53.7144 H   0  0  0  0  0  0  0  0  0  0  0  0
    3.2331   45.5016   54.9571 H   0  0  0  0  0  0  0  0  0  0  0  0
    4.2455   47.1686   52.5998 H   0  0  0  0  0  0  0  0  0  0  0  0
    4.5138   47.4392   54.3653 H   0  0  0  0  0  0  0  0  0  0  0  0
    9.5083   47.1006   54.9600 H   0  0  0  0  0  0  0  0  0  0  0  0
   10.9694   47.0002   53.9200 H   0  0  0  0  0  0  0  0  0  0  0  0
    9.9678   48.4913   53.9200 H   0  0  0  0  0  0  0  0  0  0  0  0
    8.0303   48.7138   52.8040 H   0  0  0  0  0  0  0  0  0  0  0  0
    9.1916   48.4793   51.4538 H   0  0  0  0  0  0  0  0  0  0  0  0
    7.6250   47.6006   51.4538 H   0  0  0  0  0  0  0  0  0  0  0  0
   10.6836   45.3818   52.5196 H   0  0  0  0  0  0  0  0  0  0  0  0
    9.3818   45.3481   51.2823 H   0  0  0  0  0  0  0  0  0  0  0  0
   10.5866   46.6804   51.2823 H   0  0  0  0  0  0  0  0  0  0  0  0
    6.0694   44.8999   51.6980 H   0  0  0  0  0  0  0  0  0  0  0  0
    6.3328   43.9183   53.1945 H   0  0  0  0  0  0  0  0  0  0  0  0
    0.6407   41.8045   52.4528 H   0  0  0  0  0  0  0  0  0  0  0  0
   -0.8337   42.3568   53.2306 H   0  0  0  0  0  0  0  0  0  0  0  0
    0.1588   42.8124   50.4448 H   0  0  0  0  0  0  0  0  0  0  0  0
   -1.5207   42.9059   51.0758 H   0  0  0  0  0  0  0  0  0  0  0  0
    0.7345   45.8695   52.4191 H   0  0  0  0  0  0  0  0  0  0  0  0
   -0.8131   45.3190   53.1359 H   0  0  0  0  0  0  0  0  0  0  0  0
  1  2  1  0
  3  2  1  1
  3  4  1  0
  4  5  2  0
  5  6  1  0
  6  7  2  0
  7  8  1  0
  8  9  1  0
  9 10  1  0
 10 11  1  0
 11 12  1  0
 12 13  2  0
 12 14  1  0
 14 15  1  0
 15 16  1  0
 15 17  1  0
 15 18  1  0
 11 19  1  0
  3 20  1  0
 20 21  1  0
 21 22  1  0
 22 23  1  0
 23  3  1  0
  8  4  1  0
 19  7  1  0
  1 24  1  0
  1 25  1  0
  1 26  1  0
  9 27  1  0
  9 28  1  0
 10 29  1  0
 10 30  1  0
 16 31  1  0
 16 32  1  0
 16 33  1  0
 17 34  1  0
 17 35  1  0
 17 36  1  0
 18 37  1  0
 18 38  1  0
 18 39  1  0
 19 40  1  0
 19 41  1  0
 20 42  1  0
 20 43  1  0
 21 44  1  0
 21 45  1  0
 23 46  1  0
 23 47  1  0
M  END
>  <meeko>  (3) 
{"is_sidechain": [false], "free_energy": -7.606, "intermolecular_energy": -9.974, "internal_energy": -0.354}

$$$$
ligand_42_conformer_1_docked
     RDKit          3D

 47 49  0  0  0  0  0  0  0  0999 V2000
    1.1250   45.2740   55.6860 C   0  0  0  0  0  0  0  0  0  0  0  0
    2.0600   44.5730   54.8870 O   0  0  0  0  0  0  0  0  0  0  0  0
    1.5300   44.2180   53.6140 C   0  0  1  0  0  0  0  0  0  0  0  0
    2.5850   43.6070   52.6930 C   0  0  0  0  0  0  0  0  0  0  0  0
    2.6570   42.2900   52.3980 N   0  0  0  0  0  0  0  0  0  0  0  0
    3.7350   42.1080   51.6480 N   0  0  0  0  0  0  0  0  0  0  0  0
    4.3100   43.3160   51.5060 C   0  0  0  0  0  0  0  0  0  0  0  0
    3.6150   44.2750   52.1310 N   0  0  0  0  0  0  0  0  0  0  0  0
    4.0570   45.6590   52.2830 C   0  0  0  0  0  0  0  0  0  0  0  0
    4.9800   46.0350   51.1190 C   0  0  0  0  0  0  0  0  0  0  0  0
    5.9970   44.9880   50.8980 N   0  0  0  0  0  0  0  0  0  0  0  0
    7.3430   45.3480   50.5280 C   0  0  0  0  0  0  0  0  0  0  0  0
    8.0460   44.5510   49.8470 O   0  0  0  0  0  0  0  0  0  0  0  0
    7.8610   46.5900   50.9310 O   0  0  0  0  0  0  0  0  0  0  0  0
    8.5060   46.8790   52.1800 C   0  0  0  0  0  0  0  0  0  0  0  0
    8.3040   48.3770   52.4580 C   0  0  0  0  0  0  0  0  0  0  0  0
   10.0170   46.5900   52.0940 C   0  0  0  0  0  0  0  0  0  0  0  0
    7.8620   46.0710   53.3230 C   0  0  0  0  0  0  0  0  0  0  0  0
    5.5870   43.5770   50.7690 C   0  0  0  0  0  0  0  0  0  0  0  0
    0.4040   43.2270   53.8050 C   0  0  0  0  0  0  0  0  0  0  0  0
   -0.5590   43.5510   52.6750 C   0  0  0  0  0  0  0  0  0  0  0  0
   -0.2830   44.8400   52.1770 O   0  0  0  0  0  0  0  0  0  0  0  0
    0.7630   45.3720   52.9550 C   0  0  0  0  0  0  0  0  0  0  0  0
    1.3512   45.1044   56.7491 H   0  0  0  0  0  0  0  0  0  0  0  0
    1.1874   46.3497   55.4649 H   0  0  0  0  0  0  0  0  0  0  0  0
    0.1099   44.9125   55.4649 H   0  0  0  0  0  0  0  0  0  0  0  0
    3.1813   46.3247   52.2855 H   0  0  0  0  0  0  0  0  0  0  0  0
    4.6036   45.7657   53.2316 H   0  0  0  0  0  0  0  0  0  0  0  0
    4.3788   46.1526   50.2053 H   0  0  0  0  0  0  0  0  0  0  0  0
    5.4914   46.9775   51.3644 H   0  0  0  0  0  0  0  0  0  0  0  0
    8.2809   48.5485   53.5443 H   0  0  0  0  0  0  0  0  0  0  0  0
    9.1334   48.9474   52.0143 H   0  0  0  0  0  0  0  0  0  0  0  0
    7.3532   48.7073   52.0143 H   0  0  0  0  0  0  0  0  0  0  0  0
   10.4334   46.5104   53.1090 H   0  0  0  0  0  0  0  0  0  0  0  0
   10.1794   45.6445   51.5558 H   0  0  0  0  0  0  0  0  0  0  0  0
   10.5169   47.4088   51.5558 H   0  0  0  0  0  0  0  0  0  0  0  0
    8.1883   46.4803   54.2905 H   0  0  0  0  0  0  0  0  0  0  0  0
    6.7666   46.1377   53.2473 H   0  0  0  0  0  0  0  0  0  0  0  0
    8.1713   45.0181   53.2473 H   0  0  0  0  0  0  0  0  0  0  0  0
    5.4418   43.3412   49.7044 H   0  0  0  0  0  0  0  0  0  0  0  0
    6.3753   42.9436   51.2019 H   0  0  0  0  0  0  0  0  0  0  0  0
    0.7727   42.1940   53.7217 H   0  0  0  0  0  0  0  0  0  0  0  0
   -0.0643   43.3010   54.7976 H   0  0  0  0  0  0  0  0  0  0  0  0
   -0.4391   42.8129   51.8682 H   0  0  0  0  0  0  0  0  0  0  0  0
   -1.5916   43.5174   53.0526 H   0  0  0  0  0  0  0  0  0  0  0  0
    1.4445   45.9487   52.3124 H   0  0  0  0  0  0  0  0  0  0  0  0
    0.3507   46.0353   53.7296 H   0  0  0  0  0  0  0  0  0  0  0  0
  1  2  1  0
  3  2  1  1
  3  4  1  0
  4  5  2  0
  5  6  1  0
  6  7  2  0
  7  8  1  0
  8  9  1  0
  9 10  1  0
 10 11  1  0
 11 12  1  0
 12 13  2  0
 12 14  1  0
 14 15  1  0
 15 16  1  0
 15 17  1  0
 15 18  1  0
 11 19  1  0
  3 20  1  0
 20 21  1  0
 21 22  1  0
 22 23  1  0
 23  3  1  0
  8  4  1  0
 19  7  1  0
  1 24  1  0
  1 25  1  0
  1 26  1  0
  9 27  1  0
  9 28  1  0
 10 29  1  0
 10 30  1  0
 16 31  1  0
 16 32  1  0
 16 33  1  0
 17 34  1  0
 17 35  1  0
 17 36  1  0
 18 37  1  0
 18 38  1  0
 18 39  1  0
 19 40  1  0
 19 41  1  0
 20 42  1  0
 20 43  1  0
 21 44  1  0
 21 45  1  0
 23 46  1  0
 23 47  1  0
M  END
>  <meeko>  (4) 
{"is_sidechain": [false], "free_energy": -7.309, "intermolecular_energy": -9.523, "internal_energy": -0.422}

$$$$
ligand_42_conformer_1_docked
     RDKit          3D

 47 49  0  0  0  0  0  0  0  0999 V2000
    9.1240   48.1870   54.8000 C   0  0  0  0  0  0  0  0  0  0  0  0
    8.1130   47.9740   53.8300 O   0  0  0  0  0  0  0  0  0  0  0  0
    8.4360   46.9180   52.9320 C   0  0  1  0  0  0  0  0  0  0  0  0
    7.2100   46.0960   52.5370 C   0  0  0  0  0  0  0  0  0  0  0  0
    6.9630   45.6660   51.2790 N   0  0  0  0  0  0  0  0  0  0  0  0
    5.7820   45.0640   51.2890 N   0  0  0  0  0  0  0  0  0  0  0  0
    5.3220   45.1430   52.5500 C   0  0  0  0  0  0  0  0  0  0  0  0
    6.1890   45.7670   53.3580 N   0  0  0  0  0  0  0  0  0  0  0  0
    5.9180   46.1370   54.7440 C   0  0  0  0  0  0  0  0  0  0  0  0
    4.8930   45.1690   55.3440 C   0  0  0  0  0  0  0  0  0  0  0  0
    3.7530   44.9790   54.4260 N   0  0  0  0  0  0  0  0  0  0  0  0
    2.4140   44.8500   54.9450 C   0  0  0  0  0  0  0  0  0  0  0  0
    1.9950   45.6550   55.8220 O   0  0  0  0  0  0  0  0  0  0  0  0
    1.5850   43.8200   54.4670 O   0  0  0  0  0  0  0  0  0  0  0  0
    0.3450   43.9830   53.7630 C   0  0  0  0  0  0  0  0  0  0  0  0
   -0.7440   44.2380   54.8180 C   0  0  0  0  0  0  0  0  0  0  0  0
   -0.0110   42.7040   52.9810 C   0  0  0  0  0  0  0  0  0  0  0  0
    0.4140   45.1980   52.8170 C   0  0  0  0  0  0  0  0  0  0  0  0
    3.9930   44.6330   53.0120 C   0  0  0  0  0  0  0  0  0  0  0  0
    9.0650   47.5010   51.6860 C   0  0  0  0  0  0  0  0  0  0  0  0
   10.0590   46.4380   51.2520 C   0  0  0  0  0  0  0  0  0  0  0  0
   10.3240   45.5720   52.3320 O   0  0  0  0  0  0  0  0  0  0  0  0
    9.5960   46.0510   53.4380 C   0  0  0  0  0  0  0  0  0  0  0  0
    8.6910   48.0958   55.8071 H   0  0  0  0  0  0  0  0  0  0  0  0
    9.9180   47.4364   54.6729 H   0  0  0  0  0  0  0  0  0  0  0  0
    9.5477   49.1941   54.6729 H   0  0  0  0  0  0  0  0  0  0  0  0
    6.8509   46.0885   55.3248 H   0  0  0  0  0  0  0  0  0  0  0  0
    5.5163   47.1605   54.7768 H   0  0  0  0  0  0  0  0  0  0  0  0
    5.3766   44.1977   55.5245 H   0  0  0  0  0  0  0  0  0  0  0  0
    4.5192   45.5914   56.2883 H   0  0  0  0  0  0  0  0  0  0  0  0
   -0.3108   44.1366   55.8240 H   0  0  0  0  0  0  0  0  0  0  0  0
   -1.1454   45.2544   54.6924 H   0  0  0  0  0  0  0  0  0  0  0  0
   -1.5549   43.5054   54.6924 H   0  0  0  0  0  0  0  0  0  0  0  0
   -0.2369   41.8926   53.6885 H   0  0  0  0  0  0  0  0  0  0  0  0
   -0.8904   42.8940   52.3481 H   0  0  0  0  0  0  0  0  0  0  0  0
    0.8401   42.4123   52.3481 H   0  0  0  0  0  0  0  0  0  0  0  0
    0.4665   46.1225   53.4108 H   0  0  0  0  0  0  0  0  0  0  0  0
    1.3091   45.1184   52.1826 H   0  0  0  0  0  0  0  0  0  0  0  0
   -0.4843   45.2202   52.1826 H   0  0  0  0  0  0  0  0  0  0  0  0
    3.9699   43.5389   52.9011 H   0  0  0  0  0  0  0  0  0  0  0  0
    3.2076   45.1006   52.4000 H   0  0  0  0  0  0  0  0  0  0  0  0
    8.3072   47.6706   50.9069 H   0  0  0  0  0  0  0  0  0  0  0  0
    9.5374   48.4782   51.8647 H   0  0  0  0  0  0  0  0  0  0  0  0
    9.6373   45.8618   50.4152 H   0  0  0  0  0  0  0  0  0  0  0  0
   10.9942   46.9203   50.9314 H   0  0  0  0  0  0  0  0  0  0  0  0
    9.1986   45.2023   54.0140 H   0  0  0  0  0  0  0  0  0  0  0  0
   10.2534   46.6495   54.0858 H   0  0  0  0  0  0  0  0  0  0  0  0
  1  2  1  0
  3  2  1  1
  3  4  1  0
  4  5  2  0
  5  6  1  0
  6  7  2  0
  7  8  1  0
  8  9  1  0
  9 10  1  0
 10 11  1  0
 11 12  1  0
 12 13  2  0
 12 14  1  0
 14 15  1  0
 15 16  1  0
 15 17  1  0
 15 18  1  0
 11 19  1  0
  3 20  1  0
 20 21  1  0
 21 22  1  0
 22 23  1  0
 23  3  1  0
  8  4  1  0
 19  7  1  0
  1 24  1  0
  1 25  1  0
  1 26  1  0
  9 27  1  0
  9 28  1  0
 10 29  1  0
 10 30  1  0
 16 31  1  0
 16 32  1  0
 16 33  1  0
 17 34  1  0
 17 35  1  0
 17 36  1  0
 18 37  1  0
 18 38  1  0
 18 39  1  0
 19 40  1  0
 19 41  1  0
 20 42  1  0
 20 43  1  0
 21 44  1  0
 21 45  1  0
 23 46  1  0
 23 47  1  0
M  END
>  <meeko>  (5) 
{"is_sidechain": [false], "free_energy": -6.781, "intermolecular_energy": -9.17, "internal_energy": -0.092}

$$$$
