ligand_64_conformer_1_docked
     RDKit          3D

 40 42  0  0  0  0  0  0  0  0999 V2000
    8.3010   45.5750   50.7630 O   0  0  0  0  0  0  0  0  0  0  0  0
    8.5710   46.1930   51.8270 C   0  0  0  0  0  0  0  0  0  0  0  0
    9.9130   46.7760   52.1190 C   0  0  0  0  0  0  0  0  0  0  0  0
    9.7410   47.4280   53.5050 C   0  0  0  0  0  0  0  0  0  0  0  0
    8.3240   47.1300   53.8680 C   0  0  0  0  0  0  0  0  0  0  0  0
    7.8220   47.4270   54.9850 O   0  0  0  0  0  0  0  0  0  0  0  0
    7.6220   46.4230   52.8560 N   0  0  0  0  0  0  0  0  0  0  0  0
    6.2760   45.9170   52.9010 C   0  0  0  0  0  0  0  0  0  0  0  0
    5.2780   46.4280   52.0550 C   0  0  0  0  0  0  0  0  0  0  0  0
    3.9850   45.9040   52.1210 C   0  0  0  0  0  0  0  0  0  0  0  0
    3.6920   44.8770   53.0230 C   0  0  0  0  0  0  0  0  0  0  0  0
    2.0690   44.1950   53.0900 S   0  0  0  0  0  0  0  0  0  0  0  0
    1.1340   45.0740   52.3080 O   0  0  0  0  0  0  0  0  0  0  0  0
    1.5910   44.1420   54.5150 O   0  0  0  0  0  0  0  0  0  0  0  0
    2.0540   42.5960   52.4090 N   0  0  0  0  0  0  0  0  0  0  0  0
    2.4920   42.6470   51.0120 C   0  0  0  0  0  0  0  0  0  0  0  0
    3.7690   41.8090   50.8270 C   0  0  2  0  0  0  0  0  0  0  0  0
    5.0010   42.6390   50.6020 C   0  0  0  0  0  0  0  0  0  0  0  0
    5.8580   41.7380   49.7330 C   0  0  0  0  0  0  0  0  0  0  0  0
    5.0460   40.7700   49.1060 O   0  0  0  0  0  0  0  0  0  0  0  0
    3.7300   40.9440   49.5790 C   0  0  0  0  0  0  0  0  0  0  0  0
    4.7140   44.3800   53.8370 C   0  0  0  0  0  0  0  0  0  0  0  0
    5.9660   44.9030   53.7560 N   0  0  0  0  0  0  0  0  0  0  0  0
   10.6827   45.9907   52.1488 H   0  0  0  0  0  0  0  0  0  0  0  0
   10.2402   47.4924   51.3511 H   0  0  0  0  0  0  0  0  0  0  0  0
   10.4338   46.9841   54.2351 H   0  0  0  0  0  0  0  0  0  0  0  0
    9.9593   48.5061   53.4969 H   0  0  0  0  0  0  0  0  0  0  0  0
    5.5131   47.2351   51.3455 H   0  0  0  0  0  0  0  0  0  0  0  0
    3.1971   46.2995   51.4631 H   0  0  0  0  0  0  0  0  0  0  0  0
    1.0610   42.2680   52.4280 H   0  0  0  0  0  0  0  0  0  0  0  0
    1.6968   42.2456   50.3666 H   0  0  0  0  0  0  0  0  0  0  0  0
    2.7042   43.6913   50.7393 H   0  0  0  0  0  0  0  0  0  0  0  0
    3.8082   41.2298   51.7613 H   0  0  0  0  0  0  0  0  0  0  0  0
    4.7575   43.5769   50.0814 H   0  0  0  0  0  0  0  0  0  0  0  0
    5.4970   42.9447   51.5350 H   0  0  0  0  0  0  0  0  0  0  0  0
    6.3639   42.3431   48.9662 H   0  0  0  0  0  0  0  0  0  0  0  0
    6.6081   41.2336   50.3598 H   0  0  0  0  0  0  0  0  0  0  0  0
    3.1215   41.4368   48.8064 H   0  0  0  0  0  0  0  0  0  0  0  0
    3.2855   39.9661   49.8157 H   0  0  0  0  0  0  0  0  0  0  0  0
    4.5046   43.5641   54.5444 H   0  0  0  0  0  0  0  0  0  0  0  0
  1  2  2  0
  2  3  1  0
  3  4  1  0
  4  5  1  0
  5  6  2  0
  5  7  1  0
  7  8  1  0
  8  9  2  0
  9 10  1  0
 10 11  2  0
 11 12  1  0
 12 13  2  0
 12 14  2  0
 12 15  1  0
 15 16  1  0
 16 17  1  0
 17 18  1  0
 18 19  1  0
 19 20  1  0
 20 21  1  0
 11 22  1  0
 22 23  2  0
  7  2  1  0
 23  8  1  0
 21 17  1  0
  3 24  1  0
  3 25  1  0
  4 26  1  0
  4 27  1  0
  9 28  1  0
 10 29  1  0
 15 30  1  0
 16 31  1  0
 16 32  1  0
 17 33  1  1
 18 34  1  0
 18 35  1  0
 19 36  1  0
 19 37  1  0
 21 38  1  0
 21 39  1  0
 22 40  1  0
M  END
>  <meeko>  (1) 
{"is_sidechain": [false], "free_energy": -8.581, "intermolecular_energy": -11.089, "internal_energy": -0.941}

$$$$
ligand_64_conformer_1_docked
     RDKit          3D

 40 42  0  0  0  0  0  0  0  0999 V2000
    8.5790   45.5860   50.8050 O   0  0  0  0  0  0  0  0  0  0  0  0
    8.6600   46.2060   51.8990 C   0  0  0  0  0  0  0  0  0  0  0  0
    9.9140   46.8530   52.3850 C   0  0  0  0  0  0  0  0  0  0  0  0
    9.5090   47.4810   53.7330 C   0  0  0  0  0  0  0  0  0  0  0  0
    8.0720   47.1090   53.8860 C   0  0  0  0  0  0  0  0  0  0  0  0
    7.3990   47.3680   54.9190 O   0  0  0  0  0  0  0  0  0  0  0  0
    7.5610   46.3770   52.7800 N   0  0  0  0  0  0  0  0  0  0  0  0
    6.2510   45.8030   52.6270 C   0  0  0  0  0  0  0  0  0  0  0  0
    5.4220   46.1570   51.5490 C   0  0  0  0  0  0  0  0  0  0  0  0
    4.1610   45.5710   51.4300 C   0  0  0  0  0  0  0  0  0  0  0  0
    3.7300   44.6390   52.3780 C   0  0  0  0  0  0  0  0  0  0  0  0
    2.1490   43.8770   52.2160 S   0  0  0  0  0  0  0  0  0  0  0  0
    2.2640   42.7030   51.2840 O   0  0  0  0  0  0  0  0  0  0  0  0
    1.1650   44.8520   51.6320 O   0  0  0  0  0  0  0  0  0  0  0  0
    1.5800   43.3260   53.7620 N   0  0  0  0  0  0  0  0  0  0  0  0
    0.1790   43.7160   53.9440 C   0  0  0  0  0  0  0  0  0  0  0  0
    0.0720   44.8280   55.0010 C   0  0  2  0  0  0  0  0  0  0  0  0
    1.3190   44.9940   55.8220 C   0  0  0  0  0  0  0  0  0  0  0  0
    0.7810   45.4840   57.1540 C   0  0  0  0  0  0  0  0  0  0  0  0
   -0.5830   45.1440   57.2690 O   0  0  0  0  0  0  0  0  0  0  0  0
   -0.9750   44.5340   56.0610 C   0  0  0  0  0  0  0  0  0  0  0  0
    4.5870   44.2970   53.4280 C   0  0  0  0  0  0  0  0  0  0  0  0
    5.8120   44.8780   53.5250 N   0  0  0  0  0  0  0  0  0  0  0  0
   10.7105   46.1072   52.5243 H   0  0  0  0  0  0  0  0  0  0  0  0
   10.3122   47.5929   51.6750 H   0  0  0  0  0  0  0  0  0  0  0  0
   10.1104   47.0650   54.5548 H   0  0  0  0  0  0  0  0  0  0  0  0
    9.6703   48.5688   53.7593 H   0  0  0  0  0  0  0  0  0  0  0  0
    5.7645   46.8906   50.8044 H   0  0  0  0  0  0  0  0  0  0  0  0
    3.5058   45.8429   50.5893 H   0  0  0  0  0  0  0  0  0  0  0  0
    2.1520   43.8170   54.4880 H   0  0  0  0  0  0  0  0  0  0  0  0
   -0.2235   44.0828   52.9882 H   0  0  0  0  0  0  0  0  0  0  0  0
   -0.3966   42.8418   54.2822 H   0  0  0  0  0  0  0  0  0  0  0  0
   -0.1588   45.7127   54.3894 H   0  0  0  0  0  0  0  0  0  0  0  0
    1.8486   44.0367   55.9364 H   0  0  0  0  0  0  0  0  0  0  0  0
    2.0510   45.6789   55.3691 H   0  0  0  0  0  0  0  0  0  0  0  0
    1.3456   45.0130   57.9721 H   0  0  0  0  0  0  0  0  0  0  0  0
    0.8904   46.5770   57.2116 H   0  0  0  0  0  0  0  0  0  0  0  0
   -1.0588   43.4468   56.2062 H   0  0  0  0  0  0  0  0  0  0  0  0
   -1.9505   44.9299   55.7422 H   0  0  0  0  0  0  0  0  0  0  0  0
    4.2696   43.5565   54.1770 H   0  0  0  0  0  0  0  0  0  0  0  0
  1  2  2  0
  2  3  1  0
  3  4  1  0
  4  5  1  0
  5  6  2  0
  5  7  1  0
  7  8  1  0
  8  9  2  0
  9 10  1  0
 10 11  2  0
 11 12  1  0
 12 13  2  0
 12 14  2  0
 12 15  1  0
 15 16  1  0
 16 17  1  0
 17 18  1  0
 18 19  1  0
 19 20  1  0
 20 21  1  0
 11 22  1  0
 22 23  2  0
  7  2  1  0
 23  8  1  0
 21 17  1  0
  3 24  1  0
  3 25  1  0
  4 26  1  0
  4 27  1  0
  9 28  1  0
 10 29  1  0
 15 30  1  0
 16 31  1  0
 16 32  1  0
 17 33  1  6
 18 34  1  0
 18 35  1  0
 19 36  1  0
 19 37  1  0
 21 38  1  0
 21 39  1  0
 22 40  1  0
M  END
>  <meeko>  (2) 
{"is_sidechain": [false], "free_energy": -8.076, "intermolecular_energy": -10.838, "internal_energy": -0.539}

$$$$
ligand_64_conformer_1_docked
     RDKit          3D

 40 42  0  0  0  0  0  0  0  0999 V2000
    8.0020   45.7740   50.6930 O   0  0  0  0  0  0  0  0  0  0  0  0
    8.3740   46.2980   51.7770 C   0  0  0  0  0  0  0  0  0  0  0  0
    9.7820   46.7110   52.0470 C   0  0  0  0  0  0  0  0  0  0  0  0
    9.7290   47.2990   53.4710 C   0  0  0  0  0  0  0  0  0  0  0  0
    8.3010   47.1390   53.8730 C   0  0  0  0  0  0  0  0  0  0  0  0
    7.8720   47.4250   55.0220 O   0  0  0  0  0  0  0  0  0  0  0  0
    7.4910   46.5720   52.8520 N   0  0  0  0  0  0  0  0  0  0  0  0
    6.0990   46.2160   52.9220 C   0  0  0  0  0  0  0  0  0  0  0  0
    5.0920   47.1890   52.8070 C   0  0  0  0  0  0  0  0  0  0  0  0
    3.7520   46.8030   52.8710 C   0  0  0  0  0  0  0  0  0  0  0  0
    3.4190   45.4570   53.0460 C   0  0  0  0  0  0  0  0  0  0  0  0
    1.7290   44.9620   53.0990 S   0  0  0  0  0  0  0  0  0  0  0  0
    1.6580   43.4630   53.1880 O   0  0  0  0  0  0  0  0  0  0  0  0
    1.0260   45.3960   51.8430 O   0  0  0  0  0  0  0  0  0  0  0  0
    0.9370   45.6550   54.4810 N   0  0  0  0  0  0  0  0  0  0  0  0
    1.4620   45.0530   55.7090 C   0  0  0  0  0  0  0  0  0  0  0  0
    0.4760   45.2680   56.8690 C   0  0  2  0  0  0  0  0  0  0  0  0
   -0.8940   45.6920   56.4190 C   0  0  0  0  0  0  0  0  0  0  0  0
   -1.3820   46.5370   57.5800 C   0  0  0  0  0  0  0  0  0  0  0  0
   -0.2800   46.9810   58.3410 O   0  0  0  0  0  0  0  0  0  0  0  0
    0.8820   46.4090   57.7850 C   0  0  0  0  0  0  0  0  0  0  0  0
    4.4470   44.5130   53.1380 C   0  0  0  0  0  0  0  0  0  0  0  0
    5.7450   44.9090   53.0730 N   0  0  0  0  0  0  0  0  0  0  0  0
   10.4587   45.8447   52.0062 H   0  0  0  0  0  0  0  0  0  0  0  0
   10.1633   47.4285   51.3056 H   0  0  0  0  0  0  0  0  0  0  0  0
   10.3913   46.7413   54.1495 H   0  0  0  0  0  0  0  0  0  0  0  0
   10.0659   48.3454   53.5104 H   0  0  0  0  0  0  0  0  0  0  0  0
    5.3576   48.2473   52.6675 H   0  0  0  0  0  0  0  0  0  0  0  0
    2.9576   47.5588   52.7836 H   0  0  0  0  0  0  0  0  0  0  0  0
   -0.0770   45.4080   54.4050 H   0  0  0  0  0  0  0  0  0  0  0  0
    1.6079   43.9742   55.5513 H   0  0  0  0  0  0  0  0  0  0  0  0
    2.4214   45.5288   55.9604 H   0  0  0  0  0  0  0  0  0  0  0  0
    0.4791   44.2858   57.3642 H   0  0  0  0  0  0  0  0  0  0  0  0
   -0.8416   46.2834   55.4930 H   0  0  0  0  0  0  0  0  0  0  0  0
   -1.5575   44.8460   56.1868 H   0  0  0  0  0  0  0  0  0  0  0  0
   -1.9333   47.4066   57.1930 H   0  0  0  0  0  0  0  0  0  0  0  0
   -2.0450   45.9330   58.2169 H   0  0  0  0  0  0  0  0  0  0  0  0
    1.4287   47.1695   57.2081 H   0  0  0  0  0  0  0  0  0  0  0  0
    1.5327   46.0307   58.5871 H   0  0  0  0  0  0  0  0  0  0  0  0
    4.2040   43.4475   53.2633 H   0  0  0  0  0  0  0  0  0  0  0  0
  1  2  2  0
  2  3  1  0
  3  4  1  0
  4  5  1  0
  5  6  2  0
  5  7  1  0
  7  8  1  0
  8  9  2  0
  9 10  1  0
 10 11  2  0
 11 12  1  0
 12 13  2  0
 12 14  2  0
 12 15  1  0
 15 16  1  0
 16 17  1  0
 17 18  1  0
 18 19  1  0
 19 20  1  0
 20 21  1  0
 11 22  1  0
 22 23  2  0
  7  2  1  0
 23  8  1  0
 21 17  1  0
  3 24  1  0
  3 25  1  0
  4 26  1  0
  4 27  1  0
  9 28  1  0
 10 29  1  0
 15 30  1  0
 16 31  1  0
 16 32  1  0
 17 33  1  1
 18 34  1  0
 18 35  1  0
 19 36  1  0
 19 37  1  0
 21 38  1  0
 21 39  1  0
 22 40  1  0
M  END
>  <meeko>  (3) 
{"is_sidechain": [false], "free_energy": -8.025, "intermolecular_energy": -10.667, "internal_energy": -0.645}

$$$$
ligand_64_conformer_1_docked
     RDKit          3D

 40 42  0  0  0  0  0  0  0  0999 V2000
    7.8190   45.6140   50.9260 O   0  0  0  0  0  0  0  0  0  0  0  0
    8.3510   46.2150   51.8970 C   0  0  0  0  0  0  0  0  0  0  0  0
    9.7770   46.6550   51.9090 C   0  0  0  0  0  0  0  0  0  0  0  0
    9.9420   47.3410   53.2790 C   0  0  0  0  0  0  0  0  0  0  0  0
    8.6000   47.2010   53.9150 C   0  0  0  0  0  0  0  0  0  0  0  0
    8.3560   47.5650   55.0970 O   0  0  0  0  0  0  0  0  0  0  0  0
    7.6470   46.5590   53.0800 N   0  0  0  0  0  0  0  0  0  0  0  0
    6.2900   46.2000   53.3970 C   0  0  0  0  0  0  0  0  0  0  0  0
    5.2170   47.0410   53.0600 C   0  0  0  0  0  0  0  0  0  0  0  0
    3.9140   46.6530   53.3770 C   0  0  0  0  0  0  0  0  0  0  0  0
    3.6830   45.4360   54.0230 C   0  0  0  0  0  0  0  0  0  0  0  0
    2.0380   44.9300   54.3990 S   0  0  0  0  0  0  0  0  0  0  0  0
    1.0720   45.8070   53.6520 O   0  0  0  0  0  0  0  0  0  0  0  0
    1.7760   45.0820   55.8720 O   0  0  0  0  0  0  0  0  0  0  0  0
    1.7890   43.2760   53.9290 N   0  0  0  0  0  0  0  0  0  0  0  0
    1.9540   43.1410   52.4790 C   0  0  0  0  0  0  0  0  0  0  0  0
    0.6580   42.6060   51.8460 C   0  0  2  0  0  0  0  0  0  0  0  0
   -0.1460   43.6650   51.1460 C   0  0  0  0  0  0  0  0  0  0  0  0
   -1.5700   43.1650   51.3060 C   0  0  0  0  0  0  0  0  0  0  0  0
   -1.6350   42.2550   52.3820 O   0  0  0  0  0  0  0  0  0  0  0  0
   -0.3270   42.0800   52.8750 C   0  0  0  0  0  0  0  0  0  0  0  0
    4.7740   44.6150   54.3270 C   0  0  0  0  0  0  0  0  0  0  0  0
    6.0350   45.0100   54.0100 N   0  0  0  0  0  0  0  0  0  0  0  0
   10.4535   45.7923   51.8194 H   0  0  0  0  0  0  0  0  0  0  0  0
   10.0223   47.3212   51.0688 H   0  0  0  0  0  0  0  0  0  0  0  0
   10.7138   46.8364   53.8788 H   0  0  0  0  0  0  0  0  0  0  0  0
   10.2627   48.3896   53.1922 H   0  0  0  0  0  0  0  0  0  0  0  0
    5.4018   47.9981   52.5502 H   0  0  0  0  0  0  0  0  0  0  0  0
    3.0679   47.3064   53.1178 H   0  0  0  0  0  0  0  0  0  0  0  0
    0.7980   43.0390   54.1680 H   0  0  0  0  0  0  0  0  0  0  0  0
    2.1908   44.1244   52.0468 H   0  0  0  0  0  0  0  0  0  0  0  0
    2.7723   42.4349   52.2744 H   0  0  0  0  0  0  0  0  0  0  0  0
    1.0327   41.8306   51.1616 H   0  0  0  0  0  0  0  0  0  0  0  0
   -0.0138   44.6456   51.6266 H   0  0  0  0  0  0  0  0  0  0  0  0
    0.1486   43.8136   50.0966 H   0  0  0  0  0  0  0  0  0  0  0  0
   -2.2365   44.0168   51.5064 H   0  0  0  0  0  0  0  0  0  0  0  0
   -1.8853   42.6597   50.3812 H   0  0  0  0  0  0  0  0  0  0  0  0
   -0.2095   42.6356   53.8171 H   0  0  0  0  0  0  0  0  0  0  0  0
   -0.1377   41.0127   53.0623 H   0  0  0  0  0  0  0  0  0  0  0  0
    4.6108   43.6473   54.8239 H   0  0  0  0  0  0  0  0  0  0  0  0
  1  2  2  0
  2  3  1  0
  3  4  1  0
  4  5  1  0
  5  6  2  0
  5  7  1  0
  7  8  1  0
  8  9  2  0
  9 10  1  0
 10 11  2  0
 11 12  1  0
 12 13  2  0
 12 14  2  0
 12 15  1  0
 15 16  1  0
 16 17  1  0
 17 18  1  0
 18 19  1  0
 19 20  1  0
 20 21  1  0
 11 22  1  0
 22 23  2  0
  7  2  1  0
 23  8  1  0
 21 17  1  0
  3 24  1  0
  3 25  1  0
  4 26  1  0
  4 27  1  0
  9 28  1  0
 10 29  1  0
 15 30  1  0
 16 31  1  0
 16 32  1  0
 17 33  1  6
 18 34  1  0
 18 35  1  0
 19 36  1  0
 19 37  1  0
 21 38  1  0
 21 39  1  0
 22 40  1  0
M  END
>  <meeko>  (4) 
{"is_sidechain": [false], "free_energy": -7.666, "intermolecular_energy": -10.097, "internal_energy": -0.751}

$$$$
ligand_64_conformer_1_docked
     RDKit          3D

 40 42  0  0  0  0  0  0  0  0999 V2000
    2.3910   43.5600   52.3950 O   0  0  0  0  0  0  0  0  0  0  0  0
    1.9210   44.0170   53.4710 C   0  0  0  0  0  0  0  0  0  0  0  0
    0.5550   43.6890   53.9740 C   0  0  0  0  0  0  0  0  0  0  0  0
    0.4550   44.4610   55.3050 C   0  0  0  0  0  0  0  0  0  0  0  0
    1.7650   45.1670   55.4100 C   0  0  0  0  0  0  0  0  0  0  0  0
    2.0370   45.9830   56.3310 O   0  0  0  0  0  0  0  0  0  0  0  0
    2.6470   44.8760   54.3350 N   0  0  0  0  0  0  0  0  0  0  0  0
    3.9500   45.4320   54.0830 C   0  0  0  0  0  0  0  0  0  0  0  0
    5.1160   44.7760   54.5100 C   0  0  0  0  0  0  0  0  0  0  0  0
    6.3630   45.3420   54.2390 C   0  0  0  0  0  0  0  0  0  0  0  0
    6.4460   46.5530   53.5460 C   0  0  0  0  0  0  0  0  0  0  0  0
    8.0190   47.2570   53.1770 S   0  0  0  0  0  0  0  0  0  0  0  0
    8.8550   47.2700   54.4260 O   0  0  0  0  0  0  0  0  0  0  0  0
    7.8500   48.6740   52.7040 O   0  0  0  0  0  0  0  0  0  0  0  0
    8.8290   46.3250   51.9550 N   0  0  0  0  0  0  0  0  0  0  0  0
    7.9420   46.1350   50.8050 C   0  0  0  0  0  0  0  0  0  0  0  0
    7.5780   44.6490   50.6560 C   0  0  2  0  0  0  0  0  0  0  0  0
    8.0360   44.0480   49.3570 C   0  0  0  0  0  0  0  0  0  0  0  0
    6.9930   42.9770   49.0970 C   0  0  0  0  0  0  0  0  0  0  0  0
    5.8240   43.2640   49.8330 O   0  0  0  0  0  0  0  0  0  0  0  0
    6.0790   44.4110   50.6110 C   0  0  0  0  0  0  0  0  0  0  0  0
    5.2660   47.1700   53.1200 C   0  0  0  0  0  0  0  0  0  0  0  0
    4.0610   46.6010   53.3930 N   0  0  0  0  0  0  0  0  0  0  0  0
   -0.2150   44.0287   53.2657 H   0  0  0  0  0  0  0  0  0  0  0  0
    0.3967   42.6075   54.0978 H   0  0  0  0  0  0  0  0  0  0  0  0
   -0.3764   45.1808   55.2784 H   0  0  0  0  0  0  0  0  0  0  0  0
    0.2583   43.8022   56.1636 H   0  0  0  0  0  0  0  0  0  0  0  0
    5.0472   43.8226   55.0543 H   0  0  0  0  0  0  0  0  0  0  0  0
    7.2808   44.8347   54.5710 H   0  0  0  0  0  0  0  0  0  0  0  0
    9.0270   45.3860   52.3730 H   0  0  0  0  0  0  0  0  0  0  0  0
    7.0232   46.7211   50.9539 H   0  0  0  0  0  0  0  0  0  0  0  0
    8.4582   46.4715   49.8938 H   0  0  0  0  0  0  0  0  0  0  0  0
    8.0677   44.1984   51.5319 H   0  0  0  0  0  0  0  0  0  0  0  0
    8.0420   44.7989   48.5532 H   0  0  0  0  0  0  0  0  0  0  0  0
    9.0630   43.6559   49.3963 H   0  0  0  0  0  0  0  0  0  0  0  0
    6.7529   42.9531   48.0238 H   0  0  0  0  0  0  0  0  0  0  0  0
    7.3890   41.9992   49.4084 H   0  0  0  0  0  0  0  0  0  0  0  0
    5.5799   45.2816   50.1606 H   0  0  0  0  0  0  0  0  0  0  0  0
    5.6933   44.2641   51.6306 H   0  0  0  0  0  0  0  0  0  0  0  0
    5.3121   48.1174   52.5630 H   0  0  0  0  0  0  0  0  0  0  0  0
  1  2  2  0
  2  3  1  0
  3  4  1  0
  4  5  1  0
  5  6  2  0
  5  7  1  0
  7  8  1  0
  8  9  2  0
  9 10  1  0
 10 11  2  0
 11 12  1  0
 12 13  2  0
 12 14  2  0
 12 15  1  0
 15 16  1  0
 16 17  1  0
 17 18  1  0
 18 19  1  0
 19 20  1  0
 20 21  1  0
 11 22  1  0
 22 23  2  0
  7  2  1  0
 23  8  1  0
 21 17  1  0
  3 24  1  0
  3 25  1  0
  4 26  1  0
  4 27  1  0
  9 28  1  0
 10 29  1  0
 15 30  1  0
 16 31  1  0
 16 32  1  0
 17 33  1  1
 18 34  1  0
 18 35  1  0
 19 36  1  0
 19 37  1  0
 21 38  1  0
 21 39  1  0
 22 40  1  0
M  END
>  <meeko>  (5) 
{"is_sidechain": [false], "free_energy": -7.357, "intermolecular_energy": -9.454, "internal_energy": -0.995}

$$$$
