ligand_29_conformer_1_docked
     RDKit          3D

 46 48  0  0  0  0  0  0  0  0999 V2000
   10.7020   45.9120   51.5620 C   0  0  0  0  0  0  0  0  0  0  0  0
    9.7160   46.5250   52.5160 C   0  0  0  0  0  0  0  0  0  0  0  0
   10.1430   46.9870   53.7700 C   0  0  0  0  0  0  0  0  0  0  0  0
    9.2230   47.5330   54.6690 C   0  0  0  0  0  0  0  0  0  0  0  0
    7.8680   47.6050   54.3320 C   0  0  0  0  0  0  0  0  0  0  0  0
    7.4210   47.1240   53.0900 C   0  0  0  0  0  0  0  0  0  0  0  0
    5.9700   47.2580   52.7000 C   0  0  0  0  0  0  0  0  0  0  0  0
    5.0470   46.7830   53.8400 C   0  0  1  0  0  0  0  0  0  0  0  0
    4.3610   47.9630   54.5410 C   0  0  0  0  0  0  0  0  0  0  0  0
    4.1410   49.0160   53.6410 O   0  0  0  0  0  0  0  0  0  0  0  0
    4.0360   45.8570   53.3170 N   0  0  0  0  0  0  0  0  0  0  0  0
    4.0960   44.4370   53.5260 C   0  0  0  0  0  0  0  0  0  0  0  0
    4.8920   43.9540   54.3780 O   0  0  0  0  0  0  0  0  0  0  0  0
    3.2460   43.5350   52.7270 C   0  0  0  0  0  0  0  0  0  0  0  0
    1.9000   43.3000   52.9300 C   0  0  0  0  0  0  0  0  0  0  0  0
    1.4410   42.5470   51.9170 N   0  0  0  0  0  0  0  0  0  0  0  0
    2.4250   42.2790   51.0720 N   0  0  0  0  0  0  0  0  0  0  0  0
    3.5450   42.8680   51.5420 C   0  0  0  0  0  0  0  0  0  0  0  0
    4.8560   42.7460   50.8710 C   0  0  0  0  0  0  0  0  0  0  0  0
    5.3420   41.4940   50.4550 C   0  0  0  0  0  0  0  0  0  0  0  0
    6.5680   41.3980   49.7890 C   0  0  0  0  0  0  0  0  0  0  0  0
    7.3120   42.5500   49.5180 C   0  0  0  0  0  0  0  0  0  0  0  0
    6.8290   43.8020   49.9100 C   0  0  0  0  0  0  0  0  0  0  0  0
    7.7570   45.2490   49.5610 Cl  0  0  0  0  0  0  0  0  0  0  0  0
    5.6010   43.9010   50.5780 C   0  0  0  0  0  0  0  0  0  0  0  0
    8.3530   46.5860   52.1850 C   0  0  0  0  0  0  0  0  0  0  0  0
   11.5017   45.4148   52.1305 H   0  0  0  0  0  0  0  0  0  0  0  0
   10.1888   45.1735   50.9286 H   0  0  0  0  0  0  0  0  0  0  0  0
   11.1372   46.6990   50.9286 H   0  0  0  0  0  0  0  0  0  0  0  0
   11.2055   46.9192   54.0465 H   0  0  0  0  0  0  0  0  0  0  0  0
    9.5659   47.9073   55.6448 H   0  0  0  0  0  0  0  0  0  0  0  0
    7.1492   48.0399   55.0420 H   0  0  0  0  0  0  0  0  0  0  0  0
    5.7531   48.3131   52.4771 H   0  0  0  0  0  0  0  0  0  0  0  0
    5.7851   46.6320   51.8146 H   0  0  0  0  0  0  0  0  0  0  0  0
    5.6715   46.2647   54.5825 H   0  0  0  0  0  0  0  0  0  0  0  0
    3.3954   47.6288   54.9484 H   0  0  0  0  0  0  0  0  0  0  0  0
    5.0142   48.3210   55.3504 H   0  0  0  0  0  0  0  0  0  0  0  0
    5.0370   49.3750   53.4100 H   0  0  0  0  0  0  0  0  0  0  0  0
    3.2440   46.2500   52.7590 H   0  0  0  0  0  0  0  0  0  0  0  0
    1.3043   43.6677   53.7785 H   0  0  0  0  0  0  0  0  0  0  0  0
    0.4580   42.2170   51.7950 H   0  0  0  0  0  0  0  0  0  0  0  0
    4.7550   40.5854   50.6544 H   0  0  0  0  0  0  0  0  0  0  0  0
    6.9477   40.4137   49.4777 H   0  0  0  0  0  0  0  0  0  0  0  0
    8.2773   42.4714   48.9964 H   0  0  0  0  0  0  0  0  0  0  0  0
    5.2180   44.8886   50.8747 H   0  0  0  0  0  0  0  0  0  0  0  0
    8.0113   46.2097   51.2095 H   0  0  0  0  0  0  0  0  0  0  0  0
  1  2  1  0
  2  3  2  0
  3  4  1  0
  4  5  2  0
  5  6  1  0
  6  7  1  0
  7  8  1  0
  8  9  1  0
  9 10  1  0
  8 11  1  0
 11 12  1  0
 12 13  2  0
 12 14  1  0
 14 15  2  0
 15 16  1  0
 16 17  1  0
 17 18  2  0
 18 19  1  0
 19 20  2  0
 20 21  1  0
 21 22  2  0
 22 23  1  0
 23 24  1  0
 23 25  2  0
  6 26  2  0
 26  2  1  0
 18 14  1  0
 25 19  1  0
  1 27  1  0
  1 28  1  0
  1 29  1  0
  3 30  1  0
  4 31  1  0
  5 32  1  0
  7 33  1  0
  7 34  1  0
  8 35  1  1
  9 36  1  0
  9 37  1  0
 10 38  1  0
 11 39  1  0
 15 40  1  0
 16 41  1  0
 20 42  1  0
 21 43  1  0
 22 44  1  0
 25 45  1  0
 26 46  1  0
M  END
>  <meeko>  (1) 
{"is_sidechain": [false], "free_energy": -9.421, "intermolecular_energy": -13.001, "internal_energy": -0.932}

$$$$
ligand_29_conformer_1_docked
     RDKit          3D

 46 48  0  0  0  0  0  0  0  0999 V2000
   10.3560   47.3840   55.2960 C   0  0  0  0  0  0  0  0  0  0  0  0
    9.6150   47.1130   54.0160 C   0  0  0  0  0  0  0  0  0  0  0  0
   10.3110   46.6800   52.8780 C   0  0  0  0  0  0  0  0  0  0  0  0
    9.6280   46.4530   51.6800 C   0  0  0  0  0  0  0  0  0  0  0  0
    8.2490   46.6740   51.6040 C   0  0  0  0  0  0  0  0  0  0  0  0
    7.5430   47.1300   52.7280 C   0  0  0  0  0  0  0  0  0  0  0  0
    6.0460   47.3090   52.6650 C   0  0  0  0  0  0  0  0  0  0  0  0
    5.3260   46.2190   53.4820 C   0  0  1  0  0  0  0  0  0  0  0  0
    3.8420   46.5540   53.6880 C   0  0  0  0  0  0  0  0  0  0  0  0
    3.4150   47.5110   52.7560 O   0  0  0  0  0  0  0  0  0  0  0  0
    5.4570   44.9180   52.8150 N   0  0  0  0  0  0  0  0  0  0  0  0
    5.0730   44.7020   51.4470 C   0  0  0  0  0  0  0  0  0  0  0  0
    4.8370   45.6830   50.6910 O   0  0  0  0  0  0  0  0  0  0  0  0
    4.9290   43.3280   50.9290 C   0  0  0  0  0  0  0  0  0  0  0  0
    5.9080   42.6010   50.2810 C   0  0  0  0  0  0  0  0  0  0  0  0
    5.4570   41.3490   50.0980 N   0  0  0  0  0  0  0  0  0  0  0  0
    4.2340   41.2330   50.5920 N   0  0  0  0  0  0  0  0  0  0  0  0
    3.8810   42.4290   51.1060 C   0  0  0  0  0  0  0  0  0  0  0  0
    2.5550   42.6820   51.7090 C   0  0  0  0  0  0  0  0  0  0  0  0
    2.4020   42.7800   53.1030 C   0  0  0  0  0  0  0  0  0  0  0  0
    1.1490   43.0550   53.6580 C   0  0  0  0  0  0  0  0  0  0  0  0
    0.0410   43.2510   52.8280 C   0  0  0  0  0  0  0  0  0  0  0  0
    0.1860   43.1760   51.4390 C   0  0  0  0  0  0  0  0  0  0  0  0
   -1.2020   43.4310   50.3980 Cl  0  0  0  0  0  0  0  0  0  0  0  0
    1.4410   42.8990   50.8810 C   0  0  0  0  0  0  0  0  0  0  0  0
    8.2330   47.3460   53.9340 C   0  0  0  0  0  0  0  0  0  0  0  0
    9.7076   47.1468   56.1523 H   0  0  0  0  0  0  0  0  0  0  0  0
   11.2598   46.7582   55.3360 H   0  0  0  0  0  0  0  0  0  0  0  0
   10.6428   48.4452   55.3360 H   0  0  0  0  0  0  0  0  0  0  0  0
   11.3979   46.5185   52.9285 H   0  0  0  0  0  0  0  0  0  0  0  0
   10.1765   46.0996   50.7944 H   0  0  0  0  0  0  0  0  0  0  0  0
    7.7158   46.4897   50.6597 H   0  0  0  0  0  0  0  0  0  0  0  0
    5.7841   48.2965   53.0728 H   0  0  0  0  0  0  0  0  0  0  0  0
    5.7268   47.2292   51.6154 H   0  0  0  0  0  0  0  0  0  0  0  0
    5.8034   46.1732   54.4720 H   0  0  0  0  0  0  0  0  0  0  0  0
    3.2448   45.6385   53.5646 H   0  0  0  0  0  0  0  0  0  0  0  0
    3.7094   46.9631   54.7004 H   0  0  0  0  0  0  0  0  0  0  0  0
    2.4230   47.4860   52.7690 H   0  0  0  0  0  0  0  0  0  0  0  0
    5.8360   44.1140   53.3640 H   0  0  0  0  0  0  0  0  0  0  0  0
    6.8910   42.9826   49.9677 H   0  0  0  0  0  0  0  0  0  0  0  0
    5.9810   40.5700   49.6410 H   0  0  0  0  0  0  0  0  0  0  0  0
    3.2728   42.6396   53.7603 H   0  0  0  0  0  0  0  0  0  0  0  0
    1.0343   43.1174   54.7502 H   0  0  0  0  0  0  0  0  0  0  0  0
   -0.9446   43.4642   53.2674 H   0  0  0  0  0  0  0  0  0  0  0  0
    1.5547   42.8511   49.7879 H   0  0  0  0  0  0  0  0  0  0  0  0
    7.6857   47.7003   54.8200 H   0  0  0  0  0  0  0  0  0  0  0  0
  1  2  1  0
  2  3  2  0
  3  4  1  0
  4  5  2  0
  5  6  1  0
  6  7  1  0
  7  8  1  0
  8  9  1  0
  9 10  1  0
  8 11  1  0
 11 12  1  0
 12 13  2  0
 12 14  1  0
 14 15  2  0
 15 16  1  0
 16 17  1  0
 17 18  2  0
 18 19  1  0
 19 20  2  0
 20 21  1  0
 21 22  2  0
 22 23  1  0
 23 24  1  0
 23 25  2  0
  6 26  2  0
 26  2  1  0
 18 14  1  0
 25 19  1  0
  1 27  1  0
  1 28  1  0
  1 29  1  0
  3 30  1  0
  4 31  1  0
  5 32  1  0
  7 33  1  0
  7 34  1  0
  8 35  1  1
  9 36  1  0
  9 37  1  0
 10 38  1  0
 11 39  1  0
 15 40  1  0
 16 41  1  0
 20 42  1  0
 21 43  1  0
 22 44  1  0
 25 45  1  0
 26 46  1  0
M  END
>  <meeko>  (2) 
{"is_sidechain": [false], "free_energy": -9.234, "intermolecular_energy": -12.954, "internal_energy": -0.721}

$$$$
ligand_29_conformer_1_docked
     RDKit          3D

 46 48  0  0  0  0  0  0  0  0999 V2000
   10.2810   47.3970   55.2100 C   0  0  0  0  0  0  0  0  0  0  0  0
    9.5400   47.0380   53.9520 C   0  0  0  0  0  0  0  0  0  0  0  0
   10.2480   46.6930   52.7910 C   0  0  0  0  0  0  0  0  0  0  0  0
    9.5620   46.3850   51.6140 C   0  0  0  0  0  0  0  0  0  0  0  0
    8.1650   46.4360   51.5800 C   0  0  0  0  0  0  0  0  0  0  0  0
    7.4420   46.8040   52.7270 C   0  0  0  0  0  0  0  0  0  0  0  0
    5.9340   46.7990   52.7100 C   0  0  0  0  0  0  0  0  0  0  0  0
    5.3720   45.9910   53.8950 C   0  0  1  0  0  0  0  0  0  0  0  0
    4.6150   46.8900   54.8840 C   0  0  0  0  0  0  0  0  0  0  0  0
    4.5070   48.1960   54.3850 O   0  0  0  0  0  0  0  0  0  0  0  0
    4.4850   44.9290   53.4070 N   0  0  0  0  0  0  0  0  0  0  0  0
    3.1810   45.1890   52.8640 C   0  0  0  0  0  0  0  0  0  0  0  0
    2.8440   46.3660   52.5590 O   0  0  0  0  0  0  0  0  0  0  0  0
    2.2200   44.0840   52.6850 C   0  0  0  0  0  0  0  0  0  0  0  0
    2.2740   43.1170   51.7000 C   0  0  0  0  0  0  0  0  0  0  0  0
    1.3250   42.2010   51.9510 N   0  0  0  0  0  0  0  0  0  0  0  0
    0.6580   42.5300   53.0480 N   0  0  0  0  0  0  0  0  0  0  0  0
    1.1810   43.6810   53.5190 C   0  0  0  0  0  0  0  0  0  0  0  0
    0.6540   44.3690   54.7160 C   0  0  0  0  0  0  0  0  0  0  0  0
    1.5220   44.8750   55.7000 C   0  0  0  0  0  0  0  0  0  0  0  0
    1.0110   45.5550   56.8090 C   0  0  0  0  0  0  0  0  0  0  0  0
   -0.3670   45.7520   56.9390 C   0  0  0  0  0  0  0  0  0  0  0  0
   -1.2380   45.2710   55.9570 C   0  0  0  0  0  0  0  0  0  0  0  0
   -2.9660   45.5260   56.1150 Cl  0  0  0  0  0  0  0  0  0  0  0  0
   -0.7280   44.5880   54.8440 C   0  0  0  0  0  0  0  0  0  0  0  0
    8.1380   47.1020   53.9120 C   0  0  0  0  0  0  0  0  0  0  0  0
    9.6808   47.1062   56.0847 H   0  0  0  0  0  0  0  0  0  0  0  0
   11.2438   46.8654   55.2328 H   0  0  0  0  0  0  0  0  0  0  0  0
   10.4606   48.4820   55.2328 H   0  0  0  0  0  0  0  0  0  0  0  0
   11.3475   46.6650   52.8077 H   0  0  0  0  0  0  0  0  0  0  0  0
   10.1224   46.1014   50.7109 H   0  0  0  0  0  0  0  0  0  0  0  0
    7.6301   46.1870   50.6516 H   0  0  0  0  0  0  0  0  0  0  0  0
    5.5699   47.8349   52.7759 H   0  0  0  0  0  0  0  0  0  0  0  0
    5.5953   46.3307   51.7741 H   0  0  0  0  0  0  0  0  0  0  0  0
    6.2236   45.5423   54.4274 H   0  0  0  0  0  0  0  0  0  0  0  0
    3.6068   46.4806   55.0451 H   0  0  0  0  0  0  0  0  0  0  0  0
    5.1715   46.9190   55.8324 H   0  0  0  0  0  0  0  0  0  0  0  0
    5.4140   48.4470   54.0700 H   0  0  0  0  0  0  0  0  0  0  0  0
    4.8160   43.9390   53.4680 H   0  0  0  0  0  0  0  0  0  0  0  0
    2.9758   43.1003   50.8532 H   0  0  0  0  0  0  0  0  0  0  0  0
    1.1310   41.3470   51.3820 H   0  0  0  0  0  0  0  0  0  0  0  0
    2.6081   44.7350   55.5964 H   0  0  0  0  0  0  0  0  0  0  0  0
    1.6949   45.9362   57.5816 H   0  0  0  0  0  0  0  0  0  0  0  0
   -0.7660   46.2856   57.8142 H   0  0  0  0  0  0  0  0  0  0  0  0
   -1.4139   44.2213   54.0662 H   0  0  0  0  0  0  0  0  0  0  0  0
    7.5792   47.3877   54.8154 H   0  0  0  0  0  0  0  0  0  0  0  0
  1  2  1  0
  2  3  2  0
  3  4  1  0
  4  5  2  0
  5  6  1  0
  6  7  1  0
  7  8  1  0
  8  9  1  0
  9 10  1  0
  8 11  1  0
 11 12  1  0
 12 13  2  0
 12 14  1  0
 14 15  2  0
 15 16  1  0
 16 17  1  0
 17 18  2  0
 18 19  1  0
 19 20  2  0
 20 21  1  0
 21 22  2  0
 22 23  1  0
 23 24  1  0
 23 25  2  0
  6 26  2  0
 26  2  1  0
 18 14  1  0
 25 19  1  0
  1 27  1  0
  1 28  1  0
  1 29  1  0
  3 30  1  0
  4 31  1  0
  5 32  1  0
  7 33  1  0
  7 34  1  0
  8 35  1  1
  9 36  1  0
  9 37  1  0
 10 38  1  0
 11 39  1  0
 15 40  1  0
 16 41  1  0
 20 42  1  0
 21 43  1  0
 22 44  1  0
 25 45  1  0
 26 46  1  0
M  END
>  <meeko>  (3) 
{"is_sidechain": [false], "free_energy": -8.668, "intermolecular_energy": -12.448, "internal_energy": -0.446}

$$$$
ligand_29_conformer_1_docked
     RDKit          3D

 46 48  0  0  0  0  0  0  0  0999 V2000
    5.3280   44.9200   55.5280 C   0  0  0  0  0  0  0  0  0  0  0  0
    4.5800   45.7520   54.5240 C   0  0  0  0  0  0  0  0  0  0  0  0
    4.7540   47.1430   54.4920 C   0  0  0  0  0  0  0  0  0  0  0  0
    4.0400   47.9210   53.5770 C   0  0  0  0  0  0  0  0  0  0  0  0
    3.1340   47.3180   52.6990 C   0  0  0  0  0  0  0  0  0  0  0  0
    2.9300   45.9300   52.7340 C   0  0  0  0  0  0  0  0  0  0  0  0
    2.0000   45.2710   51.7460 C   0  0  0  0  0  0  0  0  0  0  0  0
    2.0890   43.7360   51.8450 C   0  0  1  0  0  0  0  0  0  0  0  0
    0.7040   43.0820   51.7380 C   0  0  0  0  0  0  0  0  0  0  0  0
    0.1680   43.2590   50.4540 O   0  0  0  0  0  0  0  0  0  0  0  0
    2.9700   43.2130   50.7940 N   0  0  0  0  0  0  0  0  0  0  0  0
    4.1650   42.4680   51.0770 C   0  0  0  0  0  0  0  0  0  0  0  0
    4.3750   42.0240   52.2390 O   0  0  0  0  0  0  0  0  0  0  0  0
    5.1650   42.2430   50.0160 C   0  0  0  0  0  0  0  0  0  0  0  0
    5.1560   41.2070   49.1030 C   0  0  0  0  0  0  0  0  0  0  0  0
    6.1320   41.4220   48.2060 N   0  0  0  0  0  0  0  0  0  0  0  0
    6.7740   42.5430   48.4970 N   0  0  0  0  0  0  0  0  0  0  0  0
    6.2070   43.0680   49.6030 C   0  0  0  0  0  0  0  0  0  0  0  0
    6.6970   44.3080   50.2430 C   0  0  0  0  0  0  0  0  0  0  0  0
    5.7990   45.2870   50.7020 C   0  0  0  0  0  0  0  0  0  0  0  0
    6.2750   46.4380   51.3370 C   0  0  0  0  0  0  0  0  0  0  0  0
    7.6470   46.6140   51.5360 C   0  0  0  0  0  0  0  0  0  0  0  0
    8.5480   45.6370   51.1010 C   0  0  0  0  0  0  0  0  0  0  0  0
   10.2690   45.8530   51.3580 Cl  0  0  0  0  0  0  0  0  0  0  0  0
    8.0740   44.4830   50.4630 C   0  0  0  0  0  0  0  0  0  0  0  0
    3.6600   45.1510   53.6500 C   0  0  0  0  0  0  0  0  0  0  0  0
    5.0474   45.2322   56.5448 H   0  0  0  0  0  0  0  0  0  0  0  0
    5.0741   43.8590   55.3870 H   0  0  0  0  0  0  0  0  0  0  0  0
    6.4099   45.0600   55.3870 H   0  0  0  0  0  0  0  0  0  0  0  0
    5.4553   47.6236   55.1900 H   0  0  0  0  0  0  0  0  0  0  0  0
    4.1909   49.0102   53.5473 H   0  0  0  0  0  0  0  0  0  0  0  0
    2.5784   47.9347   51.9772 H   0  0  0  0  0  0  0  0  0  0  0  0
    0.9676   45.5861   51.9580 H   0  0  0  0  0  0  0  0  0  0  0  0
    2.2942   45.5749   50.7306 H   0  0  0  0  0  0  0  0  0  0  0  0
    2.5065   43.4876   52.8319 H   0  0  0  0  0  0  0  0  0  0  0  0
    0.7964   42.0056   51.9451 H   0  0  0  0  0  0  0  0  0  0  0  0
    0.0326   43.5561   52.4690 H   0  0  0  0  0  0  0  0  0  0  0  0
   -0.7760   42.9560   50.5050 H   0  0  0  0  0  0  0  0  0  0  0  0
    2.7180   43.4010   49.7970 H   0  0  0  0  0  0  0  0  0  0  0  0
    4.4660   40.3504   49.1094 H   0  0  0  0  0  0  0  0  0  0  0  0
    6.3620   40.8100   47.3920 H   0  0  0  0  0  0  0  0  0  0  0  0
    4.7171   45.1470   50.5610 H   0  0  0  0  0  0  0  0  0  0  0  0
    5.5677   47.2071   51.6809 H   0  0  0  0  0  0  0  0  0  0  0  0
    8.0183   47.5213   52.0349 H   0  0  0  0  0  0  0  0  0  0  0  0
    8.7834   43.7100   50.1326 H   0  0  0  0  0  0  0  0  0  0  0  0
    3.5088   44.0619   53.6818 H   0  0  0  0  0  0  0  0  0  0  0  0
  1  2  1  0
  2  3  2  0
  3  4  1  0
  4  5  2  0
  5  6  1  0
  6  7  1  0
  7  8  1  0
  8  9  1  0
  9 10  1  0
  8 11  1  0
 11 12  1  0
 12 13  2  0
 12 14  1  0
 14 15  2  0
 15 16  1  0
 16 17  1  0
 17 18  2  0
 18 19  1  0
 19 20  2  0
 20 21  1  0
 21 22  2  0
 22 23  1  0
 23 24  1  0
 23 25  2  0
  6 26  2  0
 26  2  1  0
 18 14  1  0
 25 19  1  0
  1 27  1  0
  1 28  1  0
  1 29  1  0
  3 30  1  0
  4 31  1  0
  5 32  1  0
  7 33  1  0
  7 34  1  0
  8 35  1  1
  9 36  1  0
  9 37  1  0
 10 38  1  0
 11 39  1  0
 15 40  1  0
 16 41  1  0
 20 42  1  0
 21 43  1  0
 22 44  1  0
 25 45  1  0
 26 46  1  0
M  END
>  <meeko>  (4) 
{"is_sidechain": [false], "free_energy": -8.582, "intermolecular_energy": -11.011, "internal_energy": -1.765}

$$$$
ligand_29_conformer_1_docked
     RDKit          3D

 46 48  0  0  0  0  0  0  0  0999 V2000
    5.8300   41.5750   49.4880 C   0  0  0  0  0  0  0  0  0  0  0  0
    6.4720   42.9110   49.7400 C   0  0  0  0  0  0  0  0  0  0  0  0
    7.7830   43.1550   49.3070 C   0  0  0  0  0  0  0  0  0  0  0  0
    8.3910   44.3870   49.5630 C   0  0  0  0  0  0  0  0  0  0  0  0
    7.7010   45.3780   50.2690 C   0  0  0  0  0  0  0  0  0  0  0  0
    6.3960   45.1400   50.7300 C   0  0  0  0  0  0  0  0  0  0  0  0
    5.6280   46.2290   51.4360 C   0  0  0  0  0  0  0  0  0  0  0  0
    5.8500   46.1600   52.9600 C   0  0  1  0  0  0  0  0  0  0  0  0
    6.7550   47.2990   53.4510 C   0  0  0  0  0  0  0  0  0  0  0  0
    7.0840   47.1230   54.8040 O   0  0  0  0  0  0  0  0  0  0  0  0
    4.5610   46.2100   53.6600 N   0  0  0  0  0  0  0  0  0  0  0  0
    4.2630   45.3940   54.8050 C   0  0  0  0  0  0  0  0  0  0  0  0
    5.1870   44.7790   55.4030 O   0  0  0  0  0  0  0  0  0  0  0  0
    2.8700   45.2530   55.2690 C   0  0  0  0  0  0  0  0  0  0  0  0
    2.3530   45.7600   56.4450 C   0  0  0  0  0  0  0  0  0  0  0  0
    1.0250   45.5620   56.4470 N   0  0  0  0  0  0  0  0  0  0  0  0
    0.6580   44.9480   55.3320 N   0  0  0  0  0  0  0  0  0  0  0  0
    1.7660   44.7430   54.5900 C   0  0  0  0  0  0  0  0  0  0  0  0
    1.7410   44.0410   53.2900 C   0  0  0  0  0  0  0  0  0  0  0  0
    2.8600   43.3240   52.8330 C   0  0  0  0  0  0  0  0  0  0  0  0
    2.8100   42.6360   51.6170 C   0  0  0  0  0  0  0  0  0  0  0  0
    1.6380   42.6420   50.8540 C   0  0  0  0  0  0  0  0  0  0  0  0
    0.5120   43.3350   51.3090 C   0  0  0  0  0  0  0  0  0  0  0  0
   -0.9620   43.3360   50.3570 Cl  0  0  0  0  0  0  0  0  0  0  0  0
    0.5600   44.0270   52.5270 C   0  0  0  0  0  0  0  0  0  0  0  0
    5.7860   43.9020   50.4600 C   0  0  0  0  0  0  0  0  0  0  0  0
    5.5981   41.0925   50.4490 H   0  0  0  0  0  0  0  0  0  0  0  0
    4.9015   41.7165   48.9153 H   0  0  0  0  0  0  0  0  0  0  0  0
    6.5206   40.9385   48.9153 H   0  0  0  0  0  0  0  0  0  0  0  0
    8.3350   42.3738   48.7638 H   0  0  0  0  0  0  0  0  0  0  0  0
    9.4147   44.5779   49.2084 H   0  0  0  0  0  0  0  0  0  0  0  0
    8.1825   46.3476   50.4639 H   0  0  0  0  0  0  0  0  0  0  0  0
    5.9687   47.2075   51.0664 H   0  0  0  0  0  0  0  0  0  0  0  0
    4.5560   46.0925   51.2307 H   0  0  0  0  0  0  0  0  0  0  0  0
    6.3525   45.2072   53.1827 H   0  0  0  0  0  0  0  0  0  0  0  0
    7.6784   47.3098   52.8533 H   0  0  0  0  0  0  0  0  0  0  0  0
    6.2167   48.2517   53.3389 H   0  0  0  0  0  0  0  0  0  0  0  0
    6.5530   46.3450   55.1180 H   0  0  0  0  0  0  0  0  0  0  0  0
    3.8260   46.8610   53.3010 H   0  0  0  0  0  0  0  0  0  0  0  0
    2.9317   46.2444   57.2453 H   0  0  0  0  0  0  0  0  0  0  0  0
    0.3640   45.8470   57.2030 H   0  0  0  0  0  0  0  0  0  0  0  0
    3.7802   43.3040   53.4354 H   0  0  0  0  0  0  0  0  0  0  0  0
    3.6946   42.0886   51.2595 H   0  0  0  0  0  0  0  0  0  0  0  0
    1.6020   42.1018   49.8964 H   0  0  0  0  0  0  0  0  0  0  0  0
   -0.3309   44.5619   52.8878 H   0  0  0  0  0  0  0  0  0  0  0  0
    4.7632   43.7086   50.8158 H   0  0  0  0  0  0  0  0  0  0  0  0
  1  2  1  0
  2  3  2  0
  3  4  1  0
  4  5  2  0
  5  6  1  0
  6  7  1  0
  7  8  1  0
  8  9  1  0
  9 10  1  0
  8 11  1  0
 11 12  1  0
 12 13  2  0
 12 14  1  0
 14 15  2  0
 15 16  1  0
 16 17  1  0
 17 18  2  0
 18 19  1  0
 19 20  2  0
 20 21  1  0
 21 22  2  0
 22 23  1  0
 23 24  1  0
 23 25  2  0
  6 26  2  0
 26  2  1  0
 18 14  1  0
 25 19  1  0
  1 27  1  0
  1 28  1  0
  1 29  1  0
  3 30  1  0
  4 31  1  0
  5 32  1  0
  7 33  1  0
  7 34  1  0
  8 35  1  6
  9 36  1  0
  9 37  1  0
 10 38  1  0
 11 39  1  0
 15 40  1  0
 16 41  1  0
 20 42  1  0
 21 43  1  0
 22 44  1  0
 25 45  1  0
 26 46  1  0
M  END
>  <meeko>  (5) 
{"is_sidechain": [false], "free_energy": -8.477, "intermolecular_energy": -11.411, "internal_energy": -1.219}

$$$$
