MODEL 1
REMARK VINA RESULT:    -9.042      0.000      0.000
REMARK INTER + INTRA:         -12.152
REMARK INTER:                 -11.685
REMARK INTRA:                  -0.466
REMARK UNBOUND:                -0.466
REMARK SMILES Cc1ccccc1C(=O)Nc1nc(-c2ccccc2OC(F)F)cs1
REMARK SMILES IDX 14 1 15 2 16 3 17 4 18 5 19 6 13 7 11 8 12 9 25 10 24 11
REMARK SMILES IDX 10 12 8 13 9 14 7 16 2 17 3 18 4 19 6 20 5 21 1 22 20 23
REMARK SMILES IDX 21 24 22 25 23 26
REMARK H PARENT 10 15
ROOT
ATOM      1  C   UNL     1       0.719  45.122  54.797  1.00  0.00     0.043 A 
ATOM      2  C   UNL     1       0.742  45.642  56.107  1.00  0.00     0.014 A 
ATOM      3  C   UNL     1      -0.260  45.313  57.021  1.00  0.00     0.001 A 
ATOM      4  C   UNL     1      -1.298  44.464  56.646  1.00  0.00     0.004 A 
ATOM      5  C   UNL     1      -1.341  43.939  55.355  1.00  0.00     0.047 A 
ATOM      6  C   UNL     1      -0.336  44.258  54.417  1.00  0.00     0.135 A 
ENDROOT
BRANCH   1   7
ATOM      7  C   UNL     1       1.787  45.498  53.833  1.00  0.00     0.087 A 
ATOM      8  C   UNL     1       3.904  45.723  53.107  1.00  0.00     0.190 A 
ATOM      9  N   UNL     1       3.107  45.318  54.117  1.00  0.00    -0.220 NA
ATOM     10  S   UNL     1       3.018  46.330  51.819  1.00  0.00    -0.105 S 
ATOM     11  C   UNL     1       1.539  46.057  52.575  1.00  0.00     0.097 A 
BRANCH   8  12
ATOM     12  N   UNL     1       5.335  45.678  53.147  1.00  0.00    -0.298 N 
ATOM     13  C   UNL     1       6.164  46.850  53.184  1.00  0.00     0.257 C 
ATOM     14  O   UNL     1       5.667  47.971  53.477  1.00  0.00    -0.269 OA
ATOM     15  H   UNL     1       5.794  44.739  53.158  1.00  0.00     0.172 HD
BRANCH  13  16
ATOM     16  C   UNL     1       7.620  46.749  52.940  1.00  0.00     0.043 A 
ATOM     17  C   UNL     1       8.153  46.220  51.736  1.00  0.00    -0.038 A 
ATOM     18  C   UNL     1       9.548  46.107  51.594  1.00  0.00     0.004 A 
ATOM     19  C   UNL     1      10.403  46.549  52.605  1.00  0.00     0.000 A 
ATOM     20  C   UNL     1       8.498  47.209  53.937  1.00  0.00     0.014 A 
ATOM     21  C   UNL     1       9.880  47.107  53.770  1.00  0.00     0.001 A 
ATOM     22  C   UNL     1       7.276  45.774  50.596  1.00  0.00     0.045 C 
ENDBRANCH  13  16
ENDBRANCH   8  12
ENDBRANCH   1   7
BRANCH   6  23
ATOM     23  O   UNL     1      -0.351  43.722  53.117  1.00  0.00    -0.434 OA
BRANCH  23  24
ATOM     24  C   UNL     1       0.256  42.493  52.728  1.00  0.00     0.542 C 
ATOM     25  F   UNL     1       1.171  42.718  51.716  1.00  0.00    -0.167 F 
ATOM     26  F   UNL     1       0.913  41.951  53.815  1.00  0.00    -0.167 F 
ENDBRANCH  23  24
ENDBRANCH   6  23
TORSDOF 5
ENDMDL
MODEL 2
REMARK VINA RESULT:    -8.648      1.993      2.763
REMARK INTER + INTRA:         -11.641
REMARK INTER:                 -10.945
REMARK INTRA:                  -0.697
REMARK UNBOUND:                -0.466
REMARK SMILES Cc1ccccc1C(=O)Nc1nc(-c2ccccc2OC(F)F)cs1
REMARK SMILES IDX 14 1 15 2 16 3 17 4 18 5 19 6 13 7 11 8 12 9 25 10 24 11
REMARK SMILES IDX 10 12 8 13 9 14 7 16 2 17 3 18 4 19 6 20 5 21 1 22 20 23
REMARK SMILES IDX 21 24 22 25 23 26
REMARK H PARENT 10 15
ROOT
ATOM      1  C   UNL     1       0.930  44.540  52.636  1.00  0.00     0.043 A 
ATOM      2  C   UNL     1      -0.235  45.322  52.504  1.00  0.00     0.014 A 
ATOM      3  C   UNL     1      -1.233  44.965  51.596  1.00  0.00     0.001 A 
ATOM      4  C   UNL     1      -1.087  43.826  50.808  1.00  0.00     0.004 A 
ATOM      5  C   UNL     1       0.058  43.039  50.922  1.00  0.00     0.047 A 
ATOM      6  C   UNL     1       1.078  43.382  51.835  1.00  0.00     0.135 A 
ENDROOT
BRANCH   1   7
ATOM      7  C   UNL     1       1.990  44.947  53.597  1.00  0.00     0.087 A 
ATOM      8  C   UNL     1       4.088  45.433  54.246  1.00  0.00     0.190 A 
ATOM      9  N   UNL     1       3.296  45.050  53.223  1.00  0.00    -0.220 NA
ATOM     10  S   UNL     1       3.215  45.652  55.662  1.00  0.00    -0.105 S 
ATOM     11  C   UNL     1       1.749  45.251  54.940  1.00  0.00     0.097 A 
BRANCH   8  12
ATOM     12  N   UNL     1       5.508  45.592  54.145  1.00  0.00    -0.298 N 
ATOM     13  C   UNL     1       6.138  46.772  53.623  1.00  0.00     0.257 C 
ATOM     14  O   UNL     1       5.482  47.841  53.499  1.00  0.00    -0.269 OA
ATOM     15  H   UNL     1       6.112  44.807  54.478  1.00  0.00     0.172 HD
BRANCH  13  16
ATOM     16  C   UNL     1       7.578  46.767  53.283  1.00  0.00     0.043 A 
ATOM     17  C   UNL     1       8.062  46.304  52.031  1.00  0.00    -0.038 A 
ATOM     18  C   UNL     1       9.448  46.280  51.796  1.00  0.00     0.004 A 
ATOM     19  C   UNL     1      10.340  46.747  52.764  1.00  0.00     0.000 A 
ATOM     20  C   UNL     1       8.491  47.253  54.235  1.00  0.00     0.014 A 
ATOM     21  C   UNL     1       9.863  47.240  53.976  1.00  0.00     0.001 A 
ATOM     22  C   UNL     1       7.139  45.835  50.937  1.00  0.00     0.045 C 
ENDBRANCH  13  16
ENDBRANCH   8  12
ENDBRANCH   1   7
BRANCH   6  23
ATOM     23  O   UNL     1       2.230  42.589  51.979  1.00  0.00    -0.434 OA
BRANCH  23  24
ATOM     24  C   UNL     1       3.217  42.383  50.972  1.00  0.00     0.542 C 
ATOM     25  F   UNL     1       4.478  42.606  51.495  1.00  0.00    -0.167 F 
ATOM     26  F   UNL     1       3.140  41.077  50.528  1.00  0.00    -0.167 F 
ENDBRANCH  23  24
ENDBRANCH   6  23
TORSDOF 5
ENDMDL
MODEL 3
REMARK VINA RESULT:    -8.523      3.349      8.432
REMARK INTER + INTRA:         -11.480
REMARK INTER:                 -11.582
REMARK INTRA:                   0.102
REMARK UNBOUND:                -0.466
REMARK SMILES Cc1ccccc1C(=O)Nc1nc(-c2ccccc2OC(F)F)cs1
REMARK SMILES IDX 14 1 15 2 16 3 17 4 18 5 19 6 13 7 11 8 12 9 25 10 24 11
REMARK SMILES IDX 10 12 8 13 9 14 7 16 2 17 3 18 4 19 6 20 5 21 1 22 20 23
REMARK SMILES IDX 21 24 22 25 23 26
REMARK H PARENT 10 15
ROOT
ATOM      1  C   UNL     1       6.459  44.989  50.897  1.00  0.00     0.043 A 
ATOM      2  C   UNL     1       5.917  43.851  50.267  1.00  0.00     0.014 A 
ATOM      3  C   UNL     1       6.675  43.112  49.357  1.00  0.00     0.001 A 
ATOM      4  C   UNL     1       7.981  43.494  49.062  1.00  0.00     0.004 A 
ATOM      5  C   UNL     1       8.537  44.617  49.672  1.00  0.00     0.047 A 
ATOM      6  C   UNL     1       7.788  45.376  50.596  1.00  0.00     0.135 A 
ENDROOT
BRANCH   1   7
ATOM      7  C   UNL     1       5.631  45.773  51.851  1.00  0.00     0.087 A 
ATOM      8  C   UNL     1       3.814  46.214  53.102  1.00  0.00     0.190 A 
ATOM      9  N   UNL     1       4.390  45.359  52.232  1.00  0.00    -0.220 NA
ATOM     10  S   UNL     1       4.805  47.527  53.433  1.00  0.00    -0.105 S 
ATOM     11  C   UNL     1       6.039  46.979  52.428  1.00  0.00     0.097 A 
BRANCH   8  12
ATOM     12  N   UNL     1       2.499  46.044  53.644  1.00  0.00    -0.298 N 
ATOM     13  C   UNL     1       2.222  45.267  54.820  1.00  0.00     0.257 C 
ATOM     14  O   UNL     1       3.156  44.938  55.600  1.00  0.00    -0.269 OA
ATOM     15  H   UNL     1       1.706  46.518  53.158  1.00  0.00     0.172 HD
BRANCH  13  16
ATOM     16  C   UNL     1       0.831  44.897  55.165  1.00  0.00     0.043 A 
ATOM     17  C   UNL     1       0.124  43.877  54.475  1.00  0.00    -0.038 A 
ATOM     18  C   UNL     1      -1.213  43.614  54.824  1.00  0.00     0.004 A 
ATOM     19  C   UNL     1      -1.828  44.314  55.863  1.00  0.00     0.000 A 
ATOM     20  C   UNL     1       0.202  45.576  56.222  1.00  0.00     0.014 A 
ATOM     21  C   UNL     1      -1.120  45.286  56.567  1.00  0.00     0.001 A 
ATOM     22  C   UNL     1       0.756  43.060  53.380  1.00  0.00     0.045 C 
ENDBRANCH  13  16
ENDBRANCH   8  12
ENDBRANCH   1   7
BRANCH   6  23
ATOM     23  O   UNL     1       8.339  46.500  51.238  1.00  0.00    -0.434 OA
BRANCH  23  24
ATOM     24  C   UNL     1       9.483  46.483  52.086  1.00  0.00     0.542 C 
ATOM     25  F   UNL     1      10.634  46.405  51.323  1.00  0.00    -0.167 F 
ATOM     26  F   UNL     1       9.513  47.650  52.825  1.00  0.00    -0.167 F 
ENDBRANCH  23  24
ENDBRANCH   6  23
TORSDOF 5
ENDMDL
MODEL 4
REMARK VINA RESULT:    -8.422      2.102      2.850
REMARK INTER + INTRA:         -11.349
REMARK INTER:                 -10.775
REMARK INTRA:                  -0.575
REMARK UNBOUND:                -0.466
REMARK SMILES Cc1ccccc1C(=O)Nc1nc(-c2ccccc2OC(F)F)cs1
REMARK SMILES IDX 14 1 15 2 16 3 17 4 18 5 19 6 13 7 11 8 12 9 25 10 24 11
REMARK SMILES IDX 10 12 8 13 9 14 7 16 2 17 3 18 4 19 6 20 5 21 1 22 20 23
REMARK SMILES IDX 21 24 22 25 23 26
REMARK H PARENT 10 15
ROOT
ATOM      1  C   UNL     1       0.481  44.321  52.674  1.00  0.00     0.043 A 
ATOM      2  C   UNL     1      -0.348  44.532  51.554  1.00  0.00     0.014 A 
ATOM      3  C   UNL     1      -1.684  44.900  51.716  1.00  0.00     0.001 A 
ATOM      4  C   UNL     1      -2.215  45.062  52.993  1.00  0.00     0.004 A 
ATOM      5  C   UNL     1      -1.414  44.856  54.115  1.00  0.00     0.047 A 
ATOM      6  C   UNL     1      -0.060  44.486  53.973  1.00  0.00     0.135 A 
ENDROOT
BRANCH   1   7
ATOM      7  C   UNL     1       1.898  43.914  52.481  1.00  0.00     0.087 A 
ATOM      8  C   UNL     1       4.130  44.107  52.685  1.00  0.00     0.190 A 
ATOM      9  N   UNL     1       2.931  44.655  52.970  1.00  0.00    -0.220 NA
ATOM     10  S   UNL     1       3.972  42.686  51.807  1.00  0.00    -0.105 S 
ATOM     11  C   UNL     1       2.291  42.760  51.795  1.00  0.00     0.097 A 
BRANCH   8  12
ATOM     12  N   UNL     1       5.386  44.690  53.051  1.00  0.00    -0.298 N 
ATOM     13  C   UNL     1       5.828  45.975  52.587  1.00  0.00     0.257 C 
ATOM     14  O   UNL     1       5.008  46.781  52.070  1.00  0.00    -0.269 OA
ATOM     15  H   UNL     1       6.005  44.149  53.696  1.00  0.00     0.172 HD
BRANCH  13  16
ATOM     16  C   UNL     1       7.236  46.395  52.766  1.00  0.00     0.043 A 
ATOM     17  C   UNL     1       8.222  46.195  51.764  1.00  0.00    -0.038 A 
ATOM     18  C   UNL     1       9.551  46.573  52.023  1.00  0.00     0.004 A 
ATOM     19  C   UNL     1       9.894  47.178  53.234  1.00  0.00     0.000 A 
ATOM     20  C   UNL     1       7.597  47.025  53.969  1.00  0.00     0.014 A 
ATOM     21  C   UNL     1       8.919  47.411  54.201  1.00  0.00     0.001 A 
ATOM     22  C   UNL     1       7.894  45.591  50.423  1.00  0.00     0.045 C 
ENDBRANCH  13  16
ENDBRANCH   8  12
ENDBRANCH   1   7
BRANCH   6  23
ATOM     23  O   UNL     1       0.770  44.295  55.092  1.00  0.00    -0.434 OA
BRANCH  23  24
ATOM     24  C   UNL     1       1.054  45.279  56.082  1.00  0.00     0.542 C 
ATOM     25  F   UNL     1       0.788  44.772  57.341  1.00  0.00    -0.167 F 
ATOM     26  F   UNL     1       2.391  45.619  56.008  1.00  0.00    -0.167 F 
ENDBRANCH  23  24
ENDBRANCH   6  23
TORSDOF 5
ENDMDL
MODEL 5
REMARK VINA RESULT:    -8.359      2.577      8.072
REMARK INTER + INTRA:         -11.269
REMARK INTER:                 -11.405
REMARK INTRA:                   0.136
REMARK UNBOUND:                -0.466
REMARK SMILES Cc1ccccc1C(=O)Nc1nc(-c2ccccc2OC(F)F)cs1
REMARK SMILES IDX 14 1 15 2 16 3 17 4 18 5 19 6 13 7 11 8 12 9 25 10 24 11
REMARK SMILES IDX 10 12 8 13 9 14 7 16 2 17 3 18 4 19 6 20 5 21 1 22 20 23
REMARK SMILES IDX 21 24 22 25 23 26
REMARK H PARENT 10 15
ROOT
ATOM      1  C   UNL     1       7.153  46.484  52.296  1.00  0.00     0.043 A 
ATOM      2  C   UNL     1       7.616  47.080  53.485  1.00  0.00     0.014 A 
ATOM      3  C   UNL     1       8.983  47.249  53.713  1.00  0.00     0.001 A 
ATOM      4  C   UNL     1       9.907  46.827  52.760  1.00  0.00     0.004 A 
ATOM      5  C   UNL     1       9.471  46.233  51.577  1.00  0.00     0.047 A 
ATOM      6  C   UNL     1       8.094  46.055  51.327  1.00  0.00     0.135 A 
ENDROOT
BRANCH   1   7
ATOM      7  C   UNL     1       5.694  46.297  52.080  1.00  0.00     0.087 A 
ATOM      8  C   UNL     1       3.532  46.173  52.691  1.00  0.00     0.190 A 
ATOM      9  N   UNL     1       4.801  46.369  53.106  1.00  0.00    -0.220 NA
ATOM     10  S   UNL     1       3.454  45.891  51.039  1.00  0.00    -0.105 S 
ATOM     11  C   UNL     1       5.118  46.037  50.832  1.00  0.00     0.097 A 
BRANCH   8  12
ATOM     12  N   UNL     1       2.395  46.163  53.563  1.00  0.00    -0.298 N 
ATOM     13  C   UNL     1       2.256  45.263  54.673  1.00  0.00     0.257 C 
ATOM     14  O   UNL     1       3.256  44.634  55.111  1.00  0.00    -0.269 OA
ATOM     15  H   UNL     1       1.635  46.855  53.380  1.00  0.00     0.172 HD
BRANCH  13  16
ATOM     16  C   UNL     1       0.952  45.108  55.355  1.00  0.00     0.043 A 
ATOM     17  C   UNL     1      -0.089  44.297  54.831  1.00  0.00    -0.038 A 
ATOM     18  C   UNL     1      -1.320  44.238  55.508  1.00  0.00     0.004 A 
ATOM     19  C   UNL     1      -1.507  44.933  56.704  1.00  0.00     0.000 A 
ATOM     20  C   UNL     1       0.751  45.782  56.572  1.00  0.00     0.014 A 
ATOM     21  C   UNL     1      -0.472  45.696  57.240  1.00  0.00     0.001 A 
ATOM     22  C   UNL     1       0.079  43.491  53.570  1.00  0.00     0.045 C 
ENDBRANCH  13  16
ENDBRANCH   8  12
ENDBRANCH   1   7
BRANCH   6  23
ATOM     23  O   UNL     1       7.634  45.477  50.131  1.00  0.00    -0.434 OA
BRANCH  23  24
ATOM     24  C   UNL     1       7.940  44.160  49.684  1.00  0.00     0.542 C 
ATOM     25  F   UNL     1       6.774  43.484  49.374  1.00  0.00    -0.167 F 
ATOM     26  F   UNL     1       8.727  44.240  48.551  1.00  0.00    -0.167 F 
ENDBRANCH  23  24
ENDBRANCH   6  23
TORSDOF 5
ENDMDL
