MODEL 1
REMARK VINA RESULT:   -10.049      0.000      0.000
REMARK INTER + INTRA:         -12.026
REMARK INTER:                 -11.811
REMARK INTRA:                  -0.214
REMARK UNBOUND:                -0.214
REMARK SMILES O=C(N[C@H]1CC[C@@H]2CC[C@@H]21)c1c[nH]nc1-c1cccc(F)c1
REMARK SMILES IDX 11 1 12 2 13 3 14 4 15 5 2 7 1 8 3 9 4 11 5 12 10 13 6 14
REMARK SMILES IDX 9 15 7 16 8 17 16 18 17 19 22 20 18 21 20 22 19 23 21 24
REMARK H PARENT 13 6 3 10
ROOT
ATOM      1  C   UNL     1       4.860  46.458  53.077  1.00  0.00     0.085 A 
ATOM      2  C   UNL     1       3.791  46.769  53.891  1.00  0.00     0.119 A 
ATOM      3  N   UNL     1       4.237  47.528  54.907  1.00  0.00    -0.284 N 
ATOM      4  N   UNL     1       5.543  47.710  54.794  1.00  0.00    -0.175 NA
ATOM      5  C   UNL     1       5.956  47.061  53.686  1.00  0.00     0.105 A 
ATOM      6  H   UNL     1       3.654  47.925  55.677  1.00  0.00     0.189 HD
ENDROOT
BRANCH   1   7
ATOM      7  C   UNL     1       4.789  45.726  51.801  1.00  0.00     0.255 C 
ATOM      8  O   UNL     1       4.239  46.271  50.806  1.00  0.00    -0.269 OA
ATOM      9  N   UNL     1       5.378  44.424  51.674  1.00  0.00    -0.349 N 
ATOM     10  H   UNL     1       6.128  44.150  52.350  1.00  0.00     0.164 HD
BRANCH   9  11
ATOM     11  C   UNL     1       5.066  43.525  50.562  1.00  0.00     0.085 C 
ATOM     12  C   UNL     1       6.339  43.081  49.852  1.00  0.00     0.025 C 
ATOM     13  C   UNL     1       4.410  42.231  51.073  1.00  0.00     0.015 C 
ATOM     14  C   UNL     1       6.045  41.687  49.319  1.00  0.00     0.006 C 
ATOM     15  C   UNL     1       3.032  41.908  50.490  1.00  0.00     0.006 C 
ATOM     16  C   UNL     1       5.016  41.084  50.281  1.00  0.00    -0.006 C 
ATOM     17  C   UNL     1       3.642  40.767  49.685  1.00  0.00     0.004 C 
ENDBRANCH   9  11
ENDBRANCH   1   7
BRANCH   5  18
ATOM     18  C   UNL     1       7.376  46.980  53.285  1.00  0.00     0.006 A 
ATOM     19  C   UNL     1       7.738  46.703  51.955  1.00  0.00     0.010 A 
ATOM     20  C   UNL     1       8.385  47.138  54.251  1.00  0.00     0.049 A 
ATOM     21  C   UNL     1       9.085  46.627  51.592  1.00  0.00     0.004 A 
ATOM     22  C   UNL     1       9.732  47.059  53.883  1.00  0.00     0.123 A 
ATOM     23  C   UNL     1      10.081  46.808  52.554  1.00  0.00     0.039 A 
ATOM     24  F   UNL     1      10.699  47.227  54.818  1.00  0.00    -0.207 F 
ENDBRANCH   5  18
TORSDOF 3
ENDMDL
MODEL 2
REMARK VINA RESULT:    -9.703      2.165      5.733
REMARK INTER + INTRA:         -11.619
REMARK INTER:                 -11.109
REMARK INTRA:                  -0.510
REMARK UNBOUND:                -0.214
REMARK SMILES O=C(N[C@H]1CC[C@@H]2CC[C@@H]21)c1c[nH]nc1-c1cccc(F)c1
REMARK SMILES IDX 11 1 12 2 13 3 14 4 15 5 2 7 1 8 3 9 4 11 5 12 10 13 6 14
REMARK SMILES IDX 9 15 7 16 8 17 16 18 17 19 22 20 18 21 20 22 19 23 21 24
REMARK H PARENT 13 6 3 10
ROOT
ATOM      1  C   UNL     1       3.757  44.862  52.994  1.00  0.00     0.085 A 
ATOM      2  C   UNL     1       2.693  44.904  53.871  1.00  0.00     0.119 A 
ATOM      3  N   UNL     1       2.052  43.723  53.818  1.00  0.00    -0.284 N 
ATOM      4  N   UNL     1       2.643  42.928  52.940  1.00  0.00    -0.175 NA
ATOM      5  C   UNL     1       3.687  43.600  52.412  1.00  0.00     0.105 A 
ATOM      6  H   UNL     1       1.214  43.455  54.380  1.00  0.00     0.189 HD
ENDROOT
BRANCH   1   7
ATOM      7  C   UNL     1       4.772  45.914  52.817  1.00  0.00     0.255 C 
ATOM      8  O   UNL     1       4.591  46.809  51.948  1.00  0.00    -0.269 OA
ATOM      9  N   UNL     1       5.937  45.950  53.654  1.00  0.00    -0.349 N 
ATOM     10  H   UNL     1       5.901  45.461  54.578  1.00  0.00     0.164 HD
BRANCH   9  11
ATOM     11  C   UNL     1       7.117  46.751  53.325  1.00  0.00     0.085 C 
ATOM     12  C   UNL     1       7.839  47.197  54.591  1.00  0.00     0.025 C 
ATOM     13  C   UNL     1       8.143  45.916  52.541  1.00  0.00     0.015 C 
ATOM     14  C   UNL     1       9.308  47.295  54.212  1.00  0.00     0.006 C 
ATOM     15  C   UNL     1       8.546  46.470  51.172  1.00  0.00     0.006 C 
ATOM     16  C   UNL     1       9.516  46.272  53.091  1.00  0.00    -0.006 C 
ATOM     17  C   UNL     1       9.916  46.839  51.727  1.00  0.00     0.004 C 
ENDBRANCH   9  11
ENDBRANCH   1   7
BRANCH   5  18
ATOM     18  C   UNL     1       4.534  43.048  51.334  1.00  0.00     0.006 A 
ATOM     19  C   UNL     1       4.307  41.757  50.825  1.00  0.00     0.010 A 
ATOM     20  C   UNL     1       5.611  43.801  50.837  1.00  0.00     0.049 A 
ATOM     21  C   UNL     1       5.119  41.247  49.808  1.00  0.00     0.004 A 
ATOM     22  C   UNL     1       6.422  43.286  49.820  1.00  0.00     0.123 A 
ATOM     23  C   UNL     1       6.173  42.012  49.303  1.00  0.00     0.039 A 
ATOM     24  F   UNL     1       7.451  44.024  49.336  1.00  0.00    -0.207 F 
ENDBRANCH   5  18
TORSDOF 3
ENDMDL
MODEL 3
REMARK VINA RESULT:    -8.978      2.642      6.281
REMARK INTER + INTRA:         -10.767
REMARK INTER:                 -10.290
REMARK INTRA:                  -0.478
REMARK UNBOUND:                -0.214
REMARK SMILES O=C(N[C@H]1CC[C@@H]2CC[C@@H]21)c1c[nH]nc1-c1cccc(F)c1
REMARK SMILES IDX 11 1 12 2 13 3 14 4 15 5 2 7 1 8 3 9 4 11 5 12 10 13 6 14
REMARK SMILES IDX 9 15 7 16 8 17 16 18 17 19 22 20 18 21 20 22 19 23 21 24
REMARK H PARENT 13 6 3 10
ROOT
ATOM      1  C   UNL     1       5.770  43.242  50.444  1.00  0.00     0.085 A 
ATOM      2  C   UNL     1       5.924  42.003  49.856  1.00  0.00     0.119 A 
ATOM      3  N   UNL     1       4.784  41.309  50.022  1.00  0.00    -0.284 N 
ATOM      4  N   UNL     1       3.909  42.036  50.698  1.00  0.00    -0.175 NA
ATOM      5  C   UNL     1       4.486  43.223  50.979  1.00  0.00     0.105 A 
ATOM      6  H   UNL     1       4.599  40.343  49.673  1.00  0.00     0.189 HD
ENDROOT
BRANCH   1   7
ATOM      7  C   UNL     1       6.746  44.344  50.404  1.00  0.00     0.255 C 
ATOM      8  O   UNL     1       7.675  44.316  49.552  1.00  0.00    -0.269 OA
ATOM      9  N   UNL     1       6.619  45.462  51.293  1.00  0.00    -0.349 N 
ATOM     10  H   UNL     1       5.682  45.660  51.713  1.00  0.00     0.164 HD
BRANCH   9  11
ATOM     11  C   UNL     1       7.711  46.408  51.527  1.00  0.00     0.085 C 
ATOM     12  C   UNL     1       7.231  47.594  52.356  1.00  0.00     0.025 C 
ATOM     13  C   UNL     1       8.830  45.756  52.357  1.00  0.00     0.015 C 
ATOM     14  C   UNL     1       8.440  48.048  53.160  1.00  0.00     0.006 C 
ATOM     15  C   UNL     1      10.220  45.758  51.716  1.00  0.00     0.006 C 
ATOM     16  C   UNL     1       9.293  46.793  53.368  1.00  0.00    -0.006 C 
ATOM     17  C   UNL     1      10.680  46.807  52.721  1.00  0.00     0.004 C 
ENDBRANCH   9  11
ENDBRANCH   1   7
BRANCH   5  18
ATOM     18  C   UNL     1       3.826  44.263  51.795  1.00  0.00     0.006 A 
ATOM     19  C   UNL     1       3.126  45.322  51.190  1.00  0.00     0.010 A 
ATOM     20  C   UNL     1       3.933  44.224  53.196  1.00  0.00     0.049 A 
ATOM     21  C   UNL     1       2.510  46.300  51.976  1.00  0.00     0.004 A 
ATOM     22  C   UNL     1       3.316  45.206  53.978  1.00  0.00     0.123 A 
ATOM     23  C   UNL     1       2.601  46.240  53.368  1.00  0.00     0.039 A 
ATOM     24  F   UNL     1       3.412  45.154  55.329  1.00  0.00    -0.207 F 
ENDBRANCH   5  18
TORSDOF 3
ENDMDL
MODEL 4
REMARK VINA RESULT:    -8.775      2.395      3.900
REMARK INTER + INTRA:         -10.529
REMARK INTER:                 -10.219
REMARK INTRA:                  -0.309
REMARK UNBOUND:                -0.214
REMARK SMILES O=C(N[C@H]1CC[C@@H]2CC[C@@H]21)c1c[nH]nc1-c1cccc(F)c1
REMARK SMILES IDX 11 1 12 2 13 3 14 4 15 5 2 7 1 8 3 9 4 11 5 12 10 13 6 14
REMARK SMILES IDX 9 15 7 16 8 17 16 18 17 19 22 20 18 21 20 22 19 23 21 24
REMARK H PARENT 13 6 3 10
ROOT
ATOM      1  C   UNL     1       7.778  46.516  52.010  1.00  0.00     0.085 A 
ATOM      2  C   UNL     1       8.995  47.163  51.973  1.00  0.00     0.119 A 
ATOM      3  N   UNL     1       9.124  47.892  53.096  1.00  0.00    -0.284 N 
ATOM      4  N   UNL     1       8.043  47.756  53.847  1.00  0.00    -0.175 NA
ATOM      5  C   UNL     1       7.196  46.925  53.206  1.00  0.00     0.105 A 
ATOM      6  H   UNL     1       9.947  48.480  53.353  1.00  0.00     0.189 HD
ENDROOT
BRANCH   1   7
ATOM      7  C   UNL     1       7.287  45.541  51.022  1.00  0.00     0.255 C 
ATOM      8  O   UNL     1       7.617  45.669  49.812  1.00  0.00    -0.269 OA
ATOM      9  N   UNL     1       6.479  44.430  51.434  1.00  0.00    -0.349 N 
ATOM     10  H   UNL     1       6.524  44.125  52.433  1.00  0.00     0.164 HD
BRANCH   9  11
ATOM     11  C   UNL     1       5.703  43.628  50.486  1.00  0.00     0.085 C 
ATOM     12  C   UNL     1       6.622  42.769  49.624  1.00  0.00     0.025 C 
ATOM     13  C   UNL     1       4.794  42.634  51.228  1.00  0.00     0.015 C 
ATOM     14  C   UNL     1       5.822  41.519  49.292  1.00  0.00     0.006 C 
ATOM     15  C   UNL     1       3.299  42.741  50.917  1.00  0.00     0.006 C 
ATOM     16  C   UNL     1       4.860  41.319  50.468  1.00  0.00    -0.006 C 
ATOM     17  C   UNL     1       3.368  41.430  50.143  1.00  0.00     0.004 C 
ENDBRANCH   9  11
ENDBRANCH   1   7
BRANCH   5  18
ATOM     18  C   UNL     1       5.847  46.604  53.717  1.00  0.00     0.006 A 
ATOM     19  C   UNL     1       5.679  45.839  54.885  1.00  0.00     0.010 A 
ATOM     20  C   UNL     1       4.711  47.028  53.007  1.00  0.00     0.049 A 
ATOM     21  C   UNL     1       4.396  45.540  55.354  1.00  0.00     0.004 A 
ATOM     22  C   UNL     1       3.430  46.726  53.479  1.00  0.00     0.123 A 
ATOM     23  C   UNL     1       3.273  45.986  54.654  1.00  0.00     0.039 A 
ATOM     24  F   UNL     1       2.339  47.150  52.796  1.00  0.00    -0.207 F 
ENDBRANCH   5  18
TORSDOF 3
ENDMDL
MODEL 5
REMARK VINA RESULT:    -8.699      2.398      4.582
REMARK INTER + INTRA:         -10.438
REMARK INTER:                 -10.374
REMARK INTRA:                  -0.064
REMARK UNBOUND:                -0.214
REMARK SMILES O=C(N[C@H]1CC[C@@H]2CC[C@@H]21)c1c[nH]nc1-c1cccc(F)c1
REMARK SMILES IDX 11 1 12 2 13 3 14 4 15 5 2 7 1 8 3 9 4 11 5 12 10 13 6 14
REMARK SMILES IDX 9 15 7 16 8 17 16 18 17 19 22 20 18 21 20 22 19 23 21 24
REMARK H PARENT 13 6 3 10
ROOT
ATOM      1  C   UNL     1       6.506  44.157  50.064  1.00  0.00     0.085 A 
ATOM      2  C   UNL     1       6.433  43.219  49.056  1.00  0.00     0.119 A 
ATOM      3  N   UNL     1       7.666  43.042  48.549  1.00  0.00    -0.284 N 
ATOM      4  N   UNL     1       8.526  43.830  49.174  1.00  0.00    -0.175 NA
ATOM      5  C   UNL     1       7.845  44.532  50.103  1.00  0.00     0.105 A 
ATOM      6  H   UNL     1       7.924  42.384  47.781  1.00  0.00     0.189 HD
ENDROOT
BRANCH   1   7
ATOM      7  C   UNL     1       5.398  44.569  50.943  1.00  0.00     0.255 C 
ATOM      8  O   UNL     1       4.617  45.484  50.565  1.00  0.00    -0.269 OA
ATOM      9  N   UNL     1       5.179  43.908  52.197  1.00  0.00    -0.349 N 
ATOM     10  H   UNL     1       5.570  42.947  52.327  1.00  0.00     0.164 HD
BRANCH   9  11
ATOM     11  C   UNL     1       4.322  44.469  53.242  1.00  0.00     0.085 C 
ATOM     12  C   UNL     1       4.765  45.881  53.606  1.00  0.00     0.025 C 
ATOM     13  C   UNL     1       2.874  44.612  52.743  1.00  0.00     0.015 C 
ATOM     14  C   UNL     1       3.501  46.611  54.030  1.00  0.00     0.006 C 
ATOM     15  C   UNL     1       1.811  43.885  53.570  1.00  0.00     0.006 C 
ATOM     16  C   UNL     1       2.359  45.949  53.252  1.00  0.00    -0.006 C 
ATOM     17  C   UNL     1       1.304  45.224  54.091  1.00  0.00     0.004 C 
ENDBRANCH   9  11
ENDBRANCH   1   7
BRANCH   5  18
ATOM     18  C   UNL     1       8.474  45.573  50.942  1.00  0.00     0.006 A 
ATOM     19  C   UNL     1       9.752  45.381  51.497  1.00  0.00     0.010 A 
ATOM     20  C   UNL     1       7.772  46.756  51.231  1.00  0.00     0.049 A 
ATOM     21  C   UNL     1      10.332  46.374  52.292  1.00  0.00     0.004 A 
ATOM     22  C   UNL     1       8.356  47.746  52.028  1.00  0.00     0.123 A 
ATOM     23  C   UNL     1       9.637  47.556  52.554  1.00  0.00     0.039 A 
ATOM     24  F   UNL     1       7.679  48.890  52.290  1.00  0.00    -0.207 F 
ENDBRANCH   5  18
TORSDOF 3
ENDMDL
