ligand_18_conformer_5_docked
     RDKit          3D

 40 43  0  0  0  0  0  0  0  0999 V2000
    2.1030   44.3710   50.9930 O   0  0  0  0  0  0  0  0  0  0  0  0
    2.8970   43.5440   51.5200 C   0  0  0  0  0  0  0  0  0  0  0  0
    2.4440   42.6950   52.5880 N   0  0  0  0  0  0  0  0  0  0  0  0
    1.2250   42.9230   53.3140 C   0  0  0  0  0  0  0  0  0  0  0  0
    0.0560   42.2890   53.0680 N   0  0  0  0  0  0  0  0  0  0  0  0
   -0.8430   42.7730   53.9210 N   0  0  0  0  0  0  0  0  0  0  0  0
   -0.1990   43.6920   54.6650 C   0  0  0  0  0  0  0  0  0  0  0  0
   -0.7410   44.4650   55.6880 C   0  0  0  0  0  0  0  0  0  0  0  0
    0.1140   45.3740   56.3350 C   0  0  0  0  0  0  0  0  0  0  0  0
    1.4660   45.4830   55.9460 C   0  0  0  0  0  0  0  0  0  0  0  0
    1.9530   44.6750   54.9050 C   0  0  0  0  0  0  0  0  0  0  0  0
    1.0880   43.8120   54.3130 N   0  0  0  0  0  0  0  0  0  0  0  0
    4.2810   43.4370   51.0010 C   0  0  0  0  0  0  0  0  0  0  0  0
    4.7850   42.1950   50.5810 C   0  0  0  0  0  0  0  0  0  0  0  0
    6.0860   42.0900   50.0850 C   0  0  0  0  0  0  0  0  0  0  0  0
    6.9020   43.2200   50.0070 C   0  0  0  0  0  0  0  0  0  0  0  0
    6.4250   44.4670   50.4300 C   0  0  0  0  0  0  0  0  0  0  0  0
    7.2710   45.6250   50.3120 N   0  0  0  0  0  0  0  0  0  0  0  0
    8.1210   46.1200   51.3620 C   0  0  0  0  0  0  0  0  0  0  0  0
    7.5730   46.9250   52.3720 C   0  0  0  0  0  0  0  0  0  0  0  0
    8.3860   47.4320   53.3910 C   0  0  0  0  0  0  0  0  0  0  0  0
    9.7540   47.1500   53.4010 C   0  0  0  0  0  0  0  0  0  0  0  0
   10.3130   46.3690   52.3870 C   0  0  0  0  0  0  0  0  0  0  0  0
    9.5050   45.8620   51.3660 C   0  0  0  0  0  0  0  0  0  0  0  0
    5.1030   44.5750   50.8980 C   0  0  0  0  0  0  0  0  0  0  0  0
    3.0090   41.8540   52.8320 H   0  0  0  0  0  0  0  0  0  0  0  0
   -1.7974   44.3682   55.9788 H   0  0  0  0  0  0  0  0  0  0  0  0
   -0.2732   46.0041   57.1493 H   0  0  0  0  0  0  0  0  0  0  0  0
    2.1333   46.1949   56.4538 H   0  0  0  0  0  0  0  0  0  0  0  0
    3.0019   44.7395   54.5798 H   0  0  0  0  0  0  0  0  0  0  0  0
    4.1503   41.2987   50.6433 H   0  0  0  0  0  0  0  0  0  0  0  0
    6.4693   41.1134   49.7545 H   0  0  0  0  0  0  0  0  0  0  0  0
    7.9245   43.1306   49.6114 H   0  0  0  0  0  0  0  0  0  0  0  0
    7.2640   46.1440   49.4040 H   0  0  0  0  0  0  0  0  0  0  0  0
    6.4982   47.1587   52.3624 H   0  0  0  0  0  0  0  0  0  0  0  0
    7.9475   48.0536   54.1855 H   0  0  0  0  0  0  0  0  0  0  0  0
   10.3909   47.5429   54.2072 H   0  0  0  0  0  0  0  0  0  0  0  0
   11.3915   46.1526   52.3922 H   0  0  0  0  0  0  0  0  0  0  0  0
    9.9521   45.2588   50.5621 H   0  0  0  0  0  0  0  0  0  0  0  0
    4.7071   45.5598   51.1867 H   0  0  0  0  0  0  0  0  0  0  0  0
  1  2  2  0
  2  3  1  0
  3  4  1  0
  4  5  2  0
  5  6  1  0
  6  7  2  0
  7  8  1  0
  8  9  2  0
  9 10  1  0
 10 11  2  0
 11 12  1  0
  2 13  1  0
 13 14  2  0
 14 15  1  0
 15 16  2  0
 16 17  1  0
 17 18  1  0
 18 19  1  0
 19 20  2  0
 20 21  1  0
 21 22  2  0
 22 23  1  0
 23 24  2  0
 17 25  2  0
 12  4  1  0
 25 13  1  0
 12  7  1  0
 24 19  1  0
  3 26  1  0
  8 27  1  0
  9 28  1  0
 10 29  1  0
 11 30  1  0
 14 31  1  0
 15 32  1  0
 16 33  1  0
 18 34  1  0
 20 35  1  0
 21 36  1  0
 22 37  1  0
 23 38  1  0
 24 39  1  0
 25 40  1  0
M  END
>  <meeko>  (1) 
{"is_sidechain": [false], "free_energy": -9.998, "intermolecular_energy": -12.336, "internal_energy": -0.815}

$$$$
ligand_18_conformer_5_docked
     RDKit          3D

 40 43  0  0  0  0  0  0  0  0999 V2000
    3.0100   42.2990   52.5140 O   0  0  0  0  0  0  0  0  0  0  0  0
    3.6180   43.3920   52.3450 C   0  0  0  0  0  0  0  0  0  0  0  0
    3.2220   44.5560   53.0900 N   0  0  0  0  0  0  0  0  0  0  0  0
    1.9790   44.6500   53.8060 C   0  0  0  0  0  0  0  0  0  0  0  0
    1.8670   44.6310   55.1540 N   0  0  0  0  0  0  0  0  0  0  0  0
    0.5720   44.7180   55.4430 N   0  0  0  0  0  0  0  0  0  0  0  0
   -0.0740   44.7840   54.2640 C   0  0  0  0  0  0  0  0  0  0  0  0
   -1.4490   44.8810   54.0700 C   0  0  0  0  0  0  0  0  0  0  0  0
   -1.9140   44.9330   52.7450 C   0  0  0  0  0  0  0  0  0  0  0  0
   -1.0050   44.8860   51.6680 C   0  0  0  0  0  0  0  0  0  0  0  0
    0.3720   44.7880   51.9280 C   0  0  0  0  0  0  0  0  0  0  0  0
    0.7710   44.7420   53.2260 N   0  0  0  0  0  0  0  0  0  0  0  0
    4.7590   43.4480   51.4010 C   0  0  0  0  0  0  0  0  0  0  0  0
    5.0230   42.3640   50.5460 C   0  0  0  0  0  0  0  0  0  0  0  0
    6.0930   42.4140   49.6500 C   0  0  0  0  0  0  0  0  0  0  0  0
    6.9140   43.5430   49.5980 C   0  0  0  0  0  0  0  0  0  0  0  0
    6.6750   44.6310   50.4470 C   0  0  0  0  0  0  0  0  0  0  0  0
    7.5140   45.7970   50.3560 N   0  0  0  0  0  0  0  0  0  0  0  0
    8.2870   46.3280   51.4460 C   0  0  0  0  0  0  0  0  0  0  0  0
    7.7120   47.2830   52.2990 C   0  0  0  0  0  0  0  0  0  0  0  0
    8.4540   47.8260   53.3530 C   0  0  0  0  0  0  0  0  0  0  0  0
    9.7780   47.4310   53.5550 C   0  0  0  0  0  0  0  0  0  0  0  0
   10.3670   46.4980   52.6970 C   0  0  0  0  0  0  0  0  0  0  0  0
    9.6300   45.9540   51.6420 C   0  0  0  0  0  0  0  0  0  0  0  0
    5.5780   44.5900   51.3260 C   0  0  0  0  0  0  0  0  0  0  0  0
    3.8790   45.3630   53.1430 H   0  0  0  0  0  0  0  0  0  0  0  0
   -2.1448   44.9156   54.9212 H   0  0  0  0  0  0  0  0  0  0  0  0
   -2.9932   45.0108   52.5468 H   0  0  0  0  0  0  0  0  0  0  0  0
   -1.3716   44.9258   50.6316 H   0  0  0  0  0  0  0  0  0  0  0  0
    1.1035   44.7497   51.1074 H   0  0  0  0  0  0  0  0  0  0  0  0
    4.3826   41.4704   50.5829 H   0  0  0  0  0  0  0  0  0  0  0  0
    6.2899   41.5617   48.9831 H   0  0  0  0  0  0  0  0  0  0  0  0
    7.7524   43.5777   48.8867 H   0  0  0  0  0  0  0  0  0  0  0  0
    7.5610   46.2930   49.4360 H   0  0  0  0  0  0  0  0  0  0  0  0
    6.6729   47.6059   52.1378 H   0  0  0  0  0  0  0  0  0  0  0  0
    7.9935   48.5658   54.0243 H   0  0  0  0  0  0  0  0  0  0  0  0
   10.3572   47.8539   54.3890 H   0  0  0  0  0  0  0  0  0  0  0  0
   11.4120   46.1917   52.8525 H   0  0  0  0  0  0  0  0  0  0  0  0
   10.1014   45.2299   50.9612 H   0  0  0  0  0  0  0  0  0  0  0  0
    5.3577   45.4601   51.9619 H   0  0  0  0  0  0  0  0  0  0  0  0
  1  2  2  0
  2  3  1  0
  3  4  1  0
  4  5  2  0
  5  6  1  0
  6  7  2  0
  7  8  1  0
  8  9  2  0
  9 10  1  0
 10 11  2  0
 11 12  1  0
  2 13  1  0
 13 14  2  0
 14 15  1  0
 15 16  2  0
 16 17  1  0
 17 18  1  0
 18 19  1  0
 19 20  2  0
 20 21  1  0
 21 22  2  0
 22 23  1  0
 23 24  2  0
 17 25  2  0
 12  4  1  0
 25 13  1  0
 12  7  1  0
 24 19  1  0
  3 26  1  0
  8 27  1  0
  9 28  1  0
 10 29  1  0
 11 30  1  0
 14 31  1  0
 15 32  1  0
 16 33  1  0
 18 34  1  0
 20 35  1  0
 21 36  1  0
 22 37  1  0
 23 38  1  0
 24 39  1  0
 25 40  1  0
M  END
>  <meeko>  (2) 
{"is_sidechain": [false], "free_energy": -9.537, "intermolecular_energy": -11.826, "internal_energy": -0.757}

$$$$
ligand_18_conformer_5_docked
     RDKit          3D

 40 43  0  0  0  0  0  0  0  0999 V2000
    6.0290   40.9250   49.2000 O   0  0  0  0  0  0  0  0  0  0  0  0
    4.9840   41.5610   49.5070 C   0  0  0  0  0  0  0  0  0  0  0  0
    3.7180   41.1760   48.9440 N   0  0  0  0  0  0  0  0  0  0  0  0
    3.5910   40.2960   47.8150 C   0  0  0  0  0  0  0  0  0  0  0  0
    2.9800   39.0900   47.8480 N   0  0  0  0  0  0  0  0  0  0  0  0
    3.0790   38.5650   46.6300 N   0  0  0  0  0  0  0  0  0  0  0  0
    3.7500   39.4640   45.8850 C   0  0  0  0  0  0  0  0  0  0  0  0
    4.0920   39.3450   44.5410 C   0  0  0  0  0  0  0  0  0  0  0  0
    4.8030   40.4080   43.9570 C   0  0  0  0  0  0  0  0  0  0  0  0
    5.1450   41.5420   44.7220 C   0  0  0  0  0  0  0  0  0  0  0  0
    4.7700   41.6040   46.0740 C   0  0  0  0  0  0  0  0  0  0  0  0
    4.0850   40.5520   46.5920 N   0  0  0  0  0  0  0  0  0  0  0  0
    5.0750   42.6810   50.4740 C   0  0  0  0  0  0  0  0  0  0  0  0
    4.3140   42.6580   51.6550 C   0  0  0  0  0  0  0  0  0  0  0  0
    4.4010   43.7070   52.5730 C   0  0  0  0  0  0  0  0  0  0  0  0
    5.2430   44.7920   52.3230 C   0  0  0  0  0  0  0  0  0  0  0  0
    6.0030   44.8410   51.1470 C   0  0  0  0  0  0  0  0  0  0  0  0
    6.8880   45.9540   50.9230 N   0  0  0  0  0  0  0  0  0  0  0  0
    7.8980   46.3880   51.8500 C   0  0  0  0  0  0  0  0  0  0  0  0
    9.2450   46.0850   51.5960 C   0  0  0  0  0  0  0  0  0  0  0  0
   10.2400   46.4820   52.4950 C   0  0  0  0  0  0  0  0  0  0  0  0
    9.8980   47.1700   53.6610 C   0  0  0  0  0  0  0  0  0  0  0  0
    8.5570   47.4560   53.9350 C   0  0  0  0  0  0  0  0  0  0  0  0
    7.5600   47.0600   53.0400 C   0  0  0  0  0  0  0  0  0  0  0  0
    5.9370   43.7690   50.2400 C   0  0  0  0  0  0  0  0  0  0  0  0
    2.8440   41.5250   49.3940 H   0  0  0  0  0  0  0  0  0  0  0  0
    3.8166   38.4536   43.9583 H   0  0  0  0  0  0  0  0  0  0  0  0
    5.0941   40.3548   42.8975 H   0  0  0  0  0  0  0  0  0  0  0  0
    5.7017   42.3723   44.2630 H   0  0  0  0  0  0  0  0  0  0  0  0
    5.0231   42.4769   46.6937 H   0  0  0  0  0  0  0  0  0  0  0  0
    3.6454   41.8084   51.8578 H   0  0  0  0  0  0  0  0  0  0  0  0
    3.8039   43.6781   53.4964 H   0  0  0  0  0  0  0  0  0  0  0  0
    5.3101   45.6124   53.0527 H   0  0  0  0  0  0  0  0  0  0  0  0
    6.7870   46.4840   50.0270 H   0  0  0  0  0  0  0  0  0  0  0  0
    9.5193   45.5325   50.6852 H   0  0  0  0  0  0  0  0  0  0  0  0
   11.2945   46.2517   52.2831 H   0  0  0  0  0  0  0  0  0  0  0  0
   10.6830   47.4868   54.3635 H   0  0  0  0  0  0  0  0  0  0  0  0
    8.2868   47.9933   54.8561 H   0  0  0  0  0  0  0  0  0  0  0  0
    6.5051   47.2745   53.2664 H   0  0  0  0  0  0  0  0  0  0  0  0
    6.5658   43.7805   49.3375 H   0  0  0  0  0  0  0  0  0  0  0  0
  1  2  2  0
  2  3  1  0
  3  4  1  0
  4  5  2  0
  5  6  1  0
  6  7  2  0
  7  8  1  0
  8  9  2  0
  9 10  1  0
 10 11  2  0
 11 12  1  0
  2 13  1  0
 13 14  2  0
 14 15  1  0
 15 16  2  0
 16 17  1  0
 17 18  1  0
 18 19  1  0
 19 20  2  0
 20 21  1  0
 21 22  2  0
 22 23  1  0
 23 24  2  0
 17 25  2  0
 12  4  1  0
 25 13  1  0
 12  7  1  0
 24 19  1  0
  3 26  1  0
  8 27  1  0
  9 28  1  0
 10 29  1  0
 11 30  1  0
 14 31  1  0
 15 32  1  0
 16 33  1  0
 18 34  1  0
 20 35  1  0
 21 36  1  0
 22 37  1  0
 23 38  1  0
 24 39  1  0
 25 40  1  0
M  END
>  <meeko>  (3) 
{"is_sidechain": [false], "free_energy": -8.927, "intermolecular_energy": -11.43, "internal_energy": -0.399}

$$$$
ligand_18_conformer_5_docked
     RDKit          3D

 40 43  0  0  0  0  0  0  0  0999 V2000
    4.4060   46.3870   51.8810 O   0  0  0  0  0  0  0  0  0  0  0  0
    4.7350   45.1740   51.9900 C   0  0  0  0  0  0  0  0  0  0  0  0
    4.1190   44.3510   52.9960 N   0  0  0  0  0  0  0  0  0  0  0  0
    3.3620   44.8830   54.0960 C   0  0  0  0  0  0  0  0  0  0  0  0
    3.8720   45.6770   55.0650 N   0  0  0  0  0  0  0  0  0  0  0  0
    2.8830   45.9490   55.9120 N   0  0  0  0  0  0  0  0  0  0  0  0
    1.7950   45.3110   55.4400 C   0  0  0  0  0  0  0  0  0  0  0  0
    0.5220   45.3050   56.0020 C   0  0  0  0  0  0  0  0  0  0  0  0
   -0.4740   44.5640   55.3420 C   0  0  0  0  0  0  0  0  0  0  0  0
   -0.1720   43.8620   54.1570 C   0  0  0  0  0  0  0  0  0  0  0  0
    1.1320   43.9070   53.6380 C   0  0  0  0  0  0  0  0  0  0  0  0
    2.0580   44.6370   54.3120 N   0  0  0  0  0  0  0  0  0  0  0  0
    5.7320   44.6060   51.0520 C   0  0  0  0  0  0  0  0  0  0  0  0
    6.9210   45.3030   50.7770 C   0  0  0  0  0  0  0  0  0  0  0  0
    7.8670   44.7690   49.8990 C   0  0  0  0  0  0  0  0  0  0  0  0
    7.6370   43.5380   49.2820 C   0  0  0  0  0  0  0  0  0  0  0  0
    6.4550   42.8300   49.5340 C   0  0  0  0  0  0  0  0  0  0  0  0
    6.2510   41.5490   48.9110 N   0  0  0  0  0  0  0  0  0  0  0  0
    5.3990   41.3250   47.7740 C   0  0  0  0  0  0  0  0  0  0  0  0
    5.7300   41.9040   46.5390 C   0  0  0  0  0  0  0  0  0  0  0  0
    4.9060   41.7130   45.4250 C   0  0  0  0  0  0  0  0  0  0  0  0
    3.7370   40.9560   45.5400 C   0  0  0  0  0  0  0  0  0  0  0  0
    3.3870   40.3960   46.7720 C   0  0  0  0  0  0  0  0  0  0  0  0
    4.2080   40.5840   47.8870 C   0  0  0  0  0  0  0  0  0  0  0  0
    5.5190   43.3560   50.4420 C   0  0  0  0  0  0  0  0  0  0  0  0
    4.1960   43.3150   52.9100 H   0  0  0  0  0  0  0  0  0  0  0  0
    0.3034   45.8587   56.9270 H   0  0  0  0  0  0  0  0  0  0  0  0
   -1.4941   44.5317   55.7522 H   0  0  0  0  0  0  0  0  0  0  0  0
   -0.9529   43.2828   53.6424 H   0  0  0  0  0  0  0  0  0  0  0  0
    1.3950   43.3685   52.7156 H   0  0  0  0  0  0  0  0  0  0  0  0
    7.1078   46.2753   51.2563 H   0  0  0  0  0  0  0  0  0  0  0  0
    8.7963   45.3203   49.6930 H   0  0  0  0  0  0  0  0  0  0  0  0
    8.3880   43.1219   48.5943 H   0  0  0  0  0  0  0  0  0  0  0  0
    6.7530   40.7260   49.3150 H   0  0  0  0  0  0  0  0  0  0  0  0
    6.6425   42.5113   46.4467 H   0  0  0  0  0  0  0  0  0  0  0  0
    5.1785   42.1592   44.4572 H   0  0  0  0  0  0  0  0  0  0  0  0
    3.0929   40.8010   44.6619 H   0  0  0  0  0  0  0  0  0  0  0  0
    2.4632   39.8060   46.8640 H   0  0  0  0  0  0  0  0  0  0  0  0
    3.9222   40.1510   48.8570 H   0  0  0  0  0  0  0  0  0  0  0  0
    4.6098   42.7837   50.6782 H   0  0  0  0  0  0  0  0  0  0  0  0
  1  2  2  0
  2  3  1  0
  3  4  1  0
  4  5  2  0
  5  6  1  0
  6  7  2  0
  7  8  1  0
  8  9  2  0
  9 10  1  0
 10 11  2  0
 11 12  1  0
  2 13  1  0
 13 14  2  0
 14 15  1  0
 15 16  2  0
 16 17  1  0
 17 18  1  0
 18 19  1  0
 19 20  2  0
 20 21  1  0
 21 22  2  0
 22 23  1  0
 23 24  2  0
 17 25  2  0
 12  4  1  0
 25 13  1  0
 12  7  1  0
 24 19  1  0
  3 26  1  0
  8 27  1  0
  9 28  1  0
 10 29  1  0
 11 30  1  0
 14 31  1  0
 15 32  1  0
 16 33  1  0
 18 34  1  0
 20 35  1  0
 21 36  1  0
 22 37  1  0
 23 38  1  0
 24 39  1  0
 25 40  1  0
M  END
>  <meeko>  (4) 
{"is_sidechain": [false], "free_energy": -8.904, "intermolecular_energy": -11.058, "internal_energy": -0.743}

$$$$
ligand_18_conformer_5_docked
     RDKit          3D

 40 43  0  0  0  0  0  0  0  0999 V2000
    5.7620   45.7760   51.0460 O   0  0  0  0  0  0  0  0  0  0  0  0
    5.4750   44.8270   51.8260 C   0  0  0  0  0  0  0  0  0  0  0  0
    5.7660   44.9380   53.2300 N   0  0  0  0  0  0  0  0  0  0  0  0
    6.6400   45.9380   53.7780 C   0  0  0  0  0  0  0  0  0  0  0  0
    6.2890   46.8160   54.7460 N   0  0  0  0  0  0  0  0  0  0  0  0
    7.3450   47.5910   54.9760 N   0  0  0  0  0  0  0  0  0  0  0  0
    8.3120   47.1700   54.1400 C   0  0  0  0  0  0  0  0  0  0  0  0
    9.5980   47.6900   54.0220 C   0  0  0  0  0  0  0  0  0  0  0  0
   10.4510   47.0980   53.0740 C   0  0  0  0  0  0  0  0  0  0  0  0
   10.0010   46.0200   52.2840 C   0  0  0  0  0  0  0  0  0  0  0  0
    8.6920   45.5390   52.4500 C   0  0  0  0  0  0  0  0  0  0  0  0
    7.9070   46.1450   53.3790 N   0  0  0  0  0  0  0  0  0  0  0  0
    4.8070   43.6200   51.2830 C   0  0  0  0  0  0  0  0  0  0  0  0
    5.5260   42.7130   50.4860 C   0  0  0  0  0  0  0  0  0  0  0  0
    4.9040   41.5710   49.9770 C   0  0  0  0  0  0  0  0  0  0  0  0
    3.5580   41.3210   50.2530 C   0  0  0  0  0  0  0  0  0  0  0  0
    2.8200   42.2160   51.0380 C   0  0  0  0  0  0  0  0  0  0  0  0
    1.4430   41.9250   51.3360 N   0  0  0  0  0  0  0  0  0  0  0  0
    0.5720   42.7930   52.0840 C   0  0  0  0  0  0  0  0  0  0  0  0
    0.3640   42.5510   53.4510 C   0  0  0  0  0  0  0  0  0  0  0  0
   -0.4920   43.3720   54.1920 C   0  0  0  0  0  0  0  0  0  0  0  0
   -1.1590   44.4300   53.5700 C   0  0  0  0  0  0  0  0  0  0  0  0
   -0.9770   44.6640   52.2050 C   0  0  0  0  0  0  0  0  0  0  0  0
   -0.1230   43.8460   51.4610 C   0  0  0  0  0  0  0  0  0  0  0  0
    3.4570   43.3490   51.5740 C   0  0  0  0  0  0  0  0  0  0  0  0
    5.2990   44.2810   53.8910 H   0  0  0  0  0  0  0  0  0  0  0  0
    9.9337   48.5313   54.6462 H   0  0  0  0  0  0  0  0  0  0  0  0
   11.4755   47.4780   52.9478 H   0  0  0  0  0  0  0  0  0  0  0  0
   10.6706   45.5591   51.5429 H   0  0  0  0  0  0  0  0  0  0  0  0
    8.3146   44.6994   51.8478 H   0  0  0  0  0  0  0  0  0  0  0  0
    6.5858   42.9039   50.2616 H   0  0  0  0  0  0  0  0  0  0  0  0
    5.4763   40.8658   49.3564 H   0  0  0  0  0  0  0  0  0  0  0  0
    3.0754   40.4174   49.8522 H   0  0  0  0  0  0  0  0  0  0  0  0
    1.0490   41.0200   50.9900 H   0  0  0  0  0  0  0  0  0  0  0  0
    0.8771   41.7110   53.9421 H   0  0  0  0  0  0  0  0  0  0  0  0
   -0.6402   43.1844   55.2657 H   0  0  0  0  0  0  0  0  0  0  0  0
   -1.8275   45.0788   54.1550 H   0  0  0  0  0  0  0  0  0  0  0  0
   -1.5071   45.4939   51.7149 H   0  0  0  0  0  0  0  0  0  0  0  0
    0.0066   44.0259   50.3836 H   0  0  0  0  0  0  0  0  0  0  0  0
    2.8940   44.0311   52.2280 H   0  0  0  0  0  0  0  0  0  0  0  0
  1  2  2  0
  2  3  1  0
  3  4  1  0
  4  5  2  0
  5  6  1  0
  6  7  2  0
  7  8  1  0
  8  9  2  0
  9 10  1  0
 10 11  2  0
 11 12  1  0
  2 13  1  0
 13 14  2  0
 14 15  1  0
 15 16  2  0
 16 17  1  0
 17 18  1  0
 18 19  1  0
 19 20  2  0
 20 21  1  0
 21 22  2  0
 22 23  1  0
 23 24  2  0
 17 25  2  0
 12  4  1  0
 25 13  1  0
 12  7  1  0
 24 19  1  0
  3 26  1  0
  8 27  1  0
  9 28  1  0
 10 29  1  0
 11 30  1  0
 14 31  1  0
 15 32  1  0
 16 33  1  0
 18 34  1  0
 20 35  1  0
 21 36  1  0
 22 37  1  0
 23 38  1  0
 24 39  1  0
 25 40  1  0
M  END
>  <meeko>  (5) 
{"is_sidechain": [false], "free_energy": -8.107, "intermolecular_energy": -10.356, "internal_energy": -0.461}

$$$$
