ligand_60_conformer_4_docked
     RDKit          3D

 44 47  0  0  0  0  0  0  0  0999 V2000
   10.2810   47.0360   54.8380 C   0  0  0  0  0  0  0  0  0  0  0  0
    9.1180   47.6960   54.0860 C   0  0  2  0  0  0  0  0  0  0  0  0
    7.7490   47.1520   54.5760 C   0  0  0  0  0  0  0  0  0  0  0  0
    7.2370   46.0180   53.6800 C   0  0  0  0  0  0  0  0  0  0  0  0
    6.9970   46.5010   52.2070 C   0  0  1  0  0  0  0  0  0  0  0  0
    7.1150   45.2970   51.2450 C   0  0  0  0  0  0  0  0  0  0  0  0
    5.7200   44.6870   51.1940 C   0  0  0  0  0  0  0  0  0  0  0  0
    4.8190   45.7630   51.5650 N   0  0  0  0  0  0  0  0  0  0  0  0
    3.3850   45.6300   51.5020 C   0  0  0  0  0  0  0  0  0  0  0  0
    2.7770   46.0110   50.4640 O   0  0  0  0  0  0  0  0  0  0  0  0
    2.5980   45.0680   52.6180 C   0  0  0  0  0  0  0  0  0  0  0  0
    2.0120   43.8150   52.6370 C   0  0  0  0  0  0  0  0  0  0  0  0
    1.3770   43.7100   53.8560 C   0  0  0  0  0  0  0  0  0  0  0  0
    1.6150   44.9080   54.5020 C   0  0  0  0  0  0  0  0  0  0  0  0
    1.1400   45.2740   55.8400 C   0  0  0  0  0  0  0  0  0  0  0  0
   -0.0570   44.9230   56.3470 N   0  0  0  0  0  0  0  0  0  0  0  0
   -0.0760   45.4520   57.5600 N   0  0  0  0  0  0  0  0  0  0  0  0
    1.0610   46.0920   57.7720 N   0  0  0  0  0  0  0  0  0  0  0  0
    1.8530   46.0050   56.7170 N   0  0  0  0  0  0  0  0  0  0  0  0
    2.3400   45.6940   53.7440 O   0  0  0  0  0  0  0  0  0  0  0  0
    5.5310   46.9460   52.0270 C   0  0  0  0  0  0  0  0  0  0  0  0
    7.9730   47.6570   51.8170 C   0  0  0  0  0  0  0  0  0  0  0  0
    9.3100   47.5410   52.5550 C   0  0  0  0  0  0  0  0  0  0  0  0
   10.1168   47.1292   55.9217 H   0  0  0  0  0  0  0  0  0  0  0  0
   10.3367   45.9717   54.5658 H   0  0  0  0  0  0  0  0  0  0  0  0
   11.2233   47.5339   54.5658 H   0  0  0  0  0  0  0  0  0  0  0  0
    9.1179   48.7734   54.3080 H   0  0  0  0  0  0  0  0  0  0  0  0
    7.8627   46.7722   55.6021 H   0  0  0  0  0  0  0  0  0  0  0  0
    7.0196   47.9746   54.5393 H   0  0  0  0  0  0  0  0  0  0  0  0
    7.9806   45.2074   53.6720 H   0  0  0  0  0  0  0  0  0  0  0  0
    6.2758   45.6696   54.0859 H   0  0  0  0  0  0  0  0  0  0  0  0
    7.4262   45.6319   50.2445 H   0  0  0  0  0  0  0  0  0  0  0  0
    7.8684   44.5714   51.5856 H   0  0  0  0  0  0  0  0  0  0  0  0
    5.4935   44.3270   50.1796 H   0  0  0  0  0  0  0  0  0  0  0  0
    5.6253   43.8218   51.8667 H   0  0  0  0  0  0  0  0  0  0  0  0
    2.0459   43.0565   51.8410 H   0  0  0  0  0  0  0  0  0  0  0  0
    0.8016   42.8525   54.2349 H   0  0  0  0  0  0  0  0  0  0  0  0
    1.3010   46.5990   58.6530 H   0  0  0  0  0  0  0  0  0  0  0  0
    5.4626   47.7515   51.2810 H   0  0  0  0  0  0  0  0  0  0  0  0
    5.1060   47.3385   52.9626 H   0  0  0  0  0  0  0  0  0  0  0  0
    8.1589   47.6167   50.7336 H   0  0  0  0  0  0  0  0  0  0  0  0
    7.5057   48.6115   52.1008 H   0  0  0  0  0  0  0  0  0  0  0  0
    9.7512   46.5552   52.3463 H   0  0  0  0  0  0  0  0  0  0  0  0
    9.9741   48.3442   52.2031 H   0  0  0  0  0  0  0  0  0  0  0  0
  1  2  1  0
  2  3  1  0
  3  4  1  0
  5  4  1  6
  5  6  1  0
  6  7  1  0
  7  8  1  0
  8  9  1  0
  9 10  2  0
  9 11  1  0
 11 12  2  0
 12 13  1  0
 13 14  2  0
 14 15  1  0
 15 16  1  0
 16 17  2  0
 17 18  1  0
 18 19  1  0
 14 20  1  0
  8 21  1  0
  5 22  1  0
 22 23  1  0
 23  2  1  0
 21  5  1  0
 20 11  1  0
 19 15  2  0
  1 24  1  0
  1 25  1  0
  1 26  1  0
  2 27  1  1
  3 28  1  0
  3 29  1  0
  4 30  1  0
  4 31  1  0
  6 32  1  0
  6 33  1  0
  7 34  1  0
  7 35  1  0
 12 36  1  0
 13 37  1  0
 18 38  1  0
 21 39  1  0
 21 40  1  0
 22 41  1  0
 22 42  1  0
 23 43  1  0
 23 44  1  0
M  END
>  <meeko>  (1) 
{"is_sidechain": [false], "free_energy": -8.835, "intermolecular_energy": -10.384, "internal_energy": -0.455}

$$$$
ligand_60_conformer_4_docked
     RDKit          3D

 44 47  0  0  0  0  0  0  0  0999 V2000
    0.0940   45.3580   52.4590 C   0  0  0  0  0  0  0  0  0  0  0  0
    1.5110   45.5840   52.9990 C   0  0  2  0  0  0  0  0  0  0  0  0
    2.3920   46.3450   51.9700 C   0  0  0  0  0  0  0  0  0  0  0  0
    3.2340   45.3830   51.1240 C   0  0  0  0  0  0  0  0  0  0  0  0
    4.2340   44.5550   52.0040 C   0  0  1  0  0  0  0  0  0  0  0  0
    4.5710   43.2270   51.2880 C   0  0  0  0  0  0  0  0  0  0  0  0
    5.7510   43.5490   50.3810 C   0  0  0  0  0  0  0  0  0  0  0  0
    6.3830   44.7140   50.9760 N   0  0  0  0  0  0  0  0  0  0  0  0
    7.6290   45.2520   50.4910 C   0  0  0  0  0  0  0  0  0  0  0  0
    7.8500   45.2680   49.2490 O   0  0  0  0  0  0  0  0  0  0  0  0
    8.6640   45.7800   51.4020 C   0  0  0  0  0  0  0  0  0  0  0  0
   10.0300   45.7030   51.1960 C   0  0  0  0  0  0  0  0  0  0  0  0
   10.6140   46.3090   52.2880 C   0  0  0  0  0  0  0  0  0  0  0  0
    9.5660   46.7150   53.0920 C   0  0  0  0  0  0  0  0  0  0  0  0
    9.6860   47.4130   54.3750 C   0  0  0  0  0  0  0  0  0  0  0  0
   10.5620   47.0840   55.3440 N   0  0  0  0  0  0  0  0  0  0  0  0
   10.3350   47.9580   56.3120 N   0  0  0  0  0  0  0  0  0  0  0  0
    9.3650   48.7740   55.9410 N   0  0  0  0  0  0  0  0  0  0  0  0
    8.9290   48.4680   54.7310 N   0  0  0  0  0  0  0  0  0  0  0  0
    8.4220   46.3860   52.5420 O   0  0  0  0  0  0  0  0  0  0  0  0
    5.5990   45.2690   52.0700 C   0  0  0  0  0  0  0  0  0  0  0  0
    3.6700   44.3150   53.4410 C   0  0  0  0  0  0  0  0  0  0  0  0
    2.1390   44.2380   53.4420 C   0  0  0  0  0  0  0  0  0  0  0  0
   -0.6056   45.2464   53.3005 H   0  0  0  0  0  0  0  0  0  0  0  0
   -0.2060   46.2197   51.8445 H   0  0  0  0  0  0  0  0  0  0  0  0
    0.0769   44.4458   51.8445 H   0  0  0  0  0  0  0  0  0  0  0  0
    1.4524   46.2269   53.8896 H   0  0  0  0  0  0  0  0  0  0  0  0
    1.7391   46.9278   51.3036 H   0  0  0  0  0  0  0  0  0  0  0  0
    3.0768   47.0031   52.5249 H   0  0  0  0  0  0  0  0  0  0  0  0
    2.5614   44.6880   50.6000 H   0  0  0  0  0  0  0  0  0  0  0  0
    3.8206   45.9799   50.4101 H   0  0  0  0  0  0  0  0  0  0  0  0
    4.8472   42.4537   52.0199 H   0  0  0  0  0  0  0  0  0  0  0  0
    3.7126   42.8365   50.7218 H   0  0  0  0  0  0  0  0  0  0  0  0
    6.4540   42.7036   50.3481 H   0  0  0  0  0  0  0  0  0  0  0  0
    5.4332   43.7382   49.3450 H   0  0  0  0  0  0  0  0  0  0  0  0
   10.5452   45.2504   50.3360 H   0  0  0  0  0  0  0  0  0  0  0  0
   11.6891   46.4416   52.4792 H   0  0  0  0  0  0  0  0  0  0  0  0
    8.9920   49.5560   56.5240 H   0  0  0  0  0  0  0  0  0  0  0  0
    6.0902   45.0705   53.0340 H   0  0  0  0  0  0  0  0  0  0  0  0
    5.4927   46.3604   51.9825 H   0  0  0  0  0  0  0  0  0  0  0  0
    4.0750   43.3691   53.8298 H   0  0  0  0  0  0  0  0  0  0  0  0
    3.9718   45.1622   54.0744 H   0  0  0  0  0  0  0  0  0  0  0  0
    1.8189   43.4468   52.7481 H   0  0  0  0  0  0  0  0  0  0  0  0
    1.8016   44.0156   54.4651 H   0  0  0  0  0  0  0  0  0  0  0  0
  1  2  1  0
  2  3  1  0
  3  4  1  0
  5  4  1  1
  5  6  1  0
  6  7  1  0
  7  8  1  0
  8  9  1  0
  9 10  2  0
  9 11  1  0
 11 12  2  0
 12 13  1  0
 13 14  2  0
 14 15  1  0
 15 16  1  0
 16 17  2  0
 17 18  1  0
 18 19  1  0
 14 20  1  0
  8 21  1  0
  5 22  1  0
 22 23  1  0
 23  2  1  0
 21  5  1  0
 20 11  1  0
 19 15  2  0
  1 24  1  0
  1 25  1  0
  1 26  1  0
  2 27  1  6
  3 28  1  0
  3 29  1  0
  4 30  1  0
  4 31  1  0
  6 32  1  0
  6 33  1  0
  7 34  1  0
  7 35  1  0
 12 36  1  0
 13 37  1  0
 18 38  1  0
 21 39  1  0
 21 40  1  0
 22 41  1  0
 22 42  1  0
 23 43  1  0
 23 44  1  0
M  END
>  <meeko>  (2) 
{"is_sidechain": [false], "free_energy": -8.819, "intermolecular_energy": -10.61, "internal_energy": -0.21}

$$$$
ligand_60_conformer_4_docked
     RDKit          3D

 44 47  0  0  0  0  0  0  0  0999 V2000
   -0.2530   46.0170   56.6690 C   0  0  0  0  0  0  0  0  0  0  0  0
    0.3890   44.8260   55.9470 C   0  0  2  0  0  0  0  0  0  0  0  0
    1.9160   45.0360   55.7600 C   0  0  0  0  0  0  0  0  0  0  0  0
    2.2440   45.6150   54.3790 C   0  0  0  0  0  0  0  0  0  0  0  0
    1.8070   44.6490   53.2230 C   0  0  1  0  0  0  0  0  0  0  0  0
    1.5520   45.4680   51.9370 C   0  0  0  0  0  0  0  0  0  0  0  0
    2.9070   45.5620   51.2470 C   0  0  0  0  0  0  0  0  0  0  0  0
    3.6670   44.4270   51.7430 N   0  0  0  0  0  0  0  0  0  0  0  0
    4.9650   44.0770   51.2220 C   0  0  0  0  0  0  0  0  0  0  0  0
    5.1000   43.0000   50.5790 O   0  0  0  0  0  0  0  0  0  0  0  0
    6.1500   44.9350   51.4240 C   0  0  0  0  0  0  0  0  0  0  0  0
    7.0350   45.3270   50.4350 C   0  0  0  0  0  0  0  0  0  0  0  0
    7.9850   46.1060   51.0630 C   0  0  0  0  0  0  0  0  0  0  0  0
    7.6180   46.1370   52.3940 C   0  0  0  0  0  0  0  0  0  0  0  0
    8.3250   46.8460   53.4650 C   0  0  0  0  0  0  0  0  0  0  0  0
    7.7230   47.5800   54.4210 N   0  0  0  0  0  0  0  0  0  0  0  0
    8.7150   48.0340   55.1700 N   0  0  0  0  0  0  0  0  0  0  0  0
    9.8620   47.5920   54.6850 N   0  0  0  0  0  0  0  0  0  0  0  0
    9.6630   46.8420   53.6140 N   0  0  0  0  0  0  0  0  0  0  0  0
    6.5270   45.4330   52.5790 O   0  0  0  0  0  0  0  0  0  0  0  0
    2.9830   43.7340   52.8240 C   0  0  0  0  0  0  0  0  0  0  0  0
    0.5620   43.7970   53.6280 C   0  0  0  0  0  0  0  0  0  0  0  0
   -0.3440   44.5500   54.6080 C   0  0  0  0  0  0  0  0  0  0  0  0
   -0.1748   45.8720   57.7566 H   0  0  0  0  0  0  0  0  0  0  0  0
    0.2683   46.9428   56.3841 H   0  0  0  0  0  0  0  0  0  0  0  0
   -1.3129   46.0905   56.3841 H   0  0  0  0  0  0  0  0  0  0  0  0
    0.2762   43.9291   56.5737 H   0  0  0  0  0  0  0  0  0  0  0  0
    2.2776   45.7304   56.5327 H   0  0  0  0  0  0  0  0  0  0  0  0
    2.4099   44.0570   55.8474 H   0  0  0  0  0  0  0  0  0  0  0  0
    1.7170   46.5733   54.2605 H   0  0  0  0  0  0  0  0  0  0  0  0
    3.3336   45.7523   54.3160 H   0  0  0  0  0  0  0  0  0  0  0  0
    0.8250   44.9545   51.2907 H   0  0  0  0  0  0  0  0  0  0  0  0
    1.1341   46.4611   52.1586 H   0  0  0  0  0  0  0  0  0  0  0  0
    2.7890   45.4996   50.1551 H   0  0  0  0  0  0  0  0  0  0  0  0
    3.4101   46.5172   51.4577 H   0  0  0  0  0  0  0  0  0  0  0  0
    6.9902   45.0700   49.3664 H   0  0  0  0  0  0  0  0  0  0  0  0
    8.8528   46.5990   50.6005 H   0  0  0  0  0  0  0  0  0  0  0  0
   10.8000   47.8060   55.0910 H   0  0  0  0  0  0  0  0  0  0  0  0
    2.6106   42.7579   52.4797 H   0  0  0  0  0  0  0  0  0  0  0  0
    3.6548   43.5400   53.6732 H   0  0  0  0  0  0  0  0  0  0  0  0
   -0.0146   43.5553   52.7229 H   0  0  0  0  0  0  0  0  0  0  0  0
    0.9185   42.8820   54.1236 H   0  0  0  0  0  0  0  0  0  0  0  0
   -0.6424   45.5082   54.1576 H   0  0  0  0  0  0  0  0  0  0  0  0
   -1.2275   43.9283   54.8151 H   0  0  0  0  0  0  0  0  0  0  0  0
  1  2  1  0
  2  3  1  0
  3  4  1  0
  5  4  1  6
  5  6  1  0
  6  7  1  0
  7  8  1  0
  8  9  1  0
  9 10  2  0
  9 11  1  0
 11 12  2  0
 12 13  1  0
 13 14  2  0
 14 15  1  0
 15 16  1  0
 16 17  2  0
 17 18  1  0
 18 19  1  0
 14 20  1  0
  8 21  1  0
  5 22  1  0
 22 23  1  0
 23  2  1  0
 21  5  1  0
 20 11  1  0
 19 15  2  0
  1 24  1  0
  1 25  1  0
  1 26  1  0
  2 27  1  6
  3 28  1  0
  3 29  1  0
  4 30  1  0
  4 31  1  0
  6 32  1  0
  6 33  1  0
  7 34  1  0
  7 35  1  0
 12 36  1  0
 13 37  1  0
 18 38  1  0
 21 39  1  0
 21 40  1  0
 22 41  1  0
 22 42  1  0
 23 43  1  0
 23 44  1  0
M  END
>  <meeko>  (3) 
{"is_sidechain": [false], "free_energy": -8.716, "intermolecular_energy": -10.223, "internal_energy": -0.475}

$$$$
ligand_60_conformer_4_docked
     RDKit          3D

 44 47  0  0  0  0  0  0  0  0999 V2000
    8.7010   46.3120   53.0770 C   0  0  0  0  0  0  0  0  0  0  0  0
    7.4210   46.5480   52.2660 C   0  0  2  0  0  0  0  0  0  0  0  0
    6.1540   46.2390   53.1090 C   0  0  0  0  0  0  0  0  0  0  0  0
    5.6430   44.8150   52.8610 C   0  0  0  0  0  0  0  0  0  0  0  0
    5.2180   44.5980   51.3670 C   0  0  1  0  0  0  0  0  0  0  0  0
    5.3310   43.0970   51.0130 C   0  0  0  0  0  0  0  0  0  0  0  0
    3.9890   42.4920   51.4050 C   0  0  0  0  0  0  0  0  0  0  0  0
    3.0490   43.5990   51.3840 N   0  0  0  0  0  0  0  0  0  0  0  0
    1.6320   43.4160   51.5640 C   0  0  0  0  0  0  0  0  0  0  0  0
    0.9360   43.0090   50.5930 O   0  0  0  0  0  0  0  0  0  0  0  0
    0.9590   43.6980   52.8480 C   0  0  0  0  0  0  0  0  0  0  0  0
   -0.2990   43.2510   53.2110 C   0  0  0  0  0  0  0  0  0  0  0  0
   -0.5300   43.7510   54.4750 C   0  0  0  0  0  0  0  0  0  0  0  0
    0.6020   44.4730   54.8010 C   0  0  0  0  0  0  0  0  0  0  0  0
    0.8310   45.1960   56.0550 C   0  0  0  0  0  0  0  0  0  0  0  0
   -0.0720   45.3050   57.0490 N   0  0  0  0  0  0  0  0  0  0  0  0
    0.5350   46.0260   57.9770 N   0  0  0  0  0  0  0  0  0  0  0  0
    1.7500   46.3360   57.5590 N   0  0  0  0  0  0  0  0  0  0  0  0
    1.9770   45.8340   56.3570 N   0  0  0  0  0  0  0  0  0  0  0  0
    1.4670   44.4250   53.8160 O   0  0  0  0  0  0  0  0  0  0  0  0
    3.7120   44.8820   51.1970 C   0  0  0  0  0  0  0  0  0  0  0  0
    6.0580   45.4900   50.3980 C   0  0  0  0  0  0  0  0  0  0  0  0
    7.4680   45.7430   50.9410 C   0  0  0  0  0  0  0  0  0  0  0  0
    8.4677   46.3550   54.1511 H   0  0  0  0  0  0  0  0  0  0  0  0
    9.1139   45.3226   52.8308 H   0  0  0  0  0  0  0  0  0  0  0  0
    9.4396   47.0891   52.8308 H   0  0  0  0  0  0  0  0  0  0  0  0
    7.3610   47.6137   52.0002 H   0  0  0  0  0  0  0  0  0  0  0  0
    6.3995   46.3492   54.1756 H   0  0  0  0  0  0  0  0  0  0  0  0
    5.3636   46.9441   52.8123 H   0  0  0  0  0  0  0  0  0  0  0  0
    6.4425   44.1018   53.1105 H   0  0  0  0  0  0  0  0  0  0  0  0
    4.7576   44.6555   53.4939 H   0  0  0  0  0  0  0  0  0  0  0  0
    5.5127   42.9673   49.9359 H   0  0  0  0  0  0  0  0  0  0  0  0
    6.1687   42.6131   51.5365 H   0  0  0  0  0  0  0  0  0  0  0  0
    3.6894   41.7183   50.6827 H   0  0  0  0  0  0  0  0  0  0  0  0
    4.0300   42.0074   52.3916 H   0  0  0  0  0  0  0  0  0  0  0  0
   -0.9769   42.6243   52.6129 H   0  0  0  0  0  0  0  0  0  0  0  0
   -1.4275   43.6056   55.0942 H   0  0  0  0  0  0  0  0  0  0  0  0
    2.4380   46.9010   58.1040 H   0  0  0  0  0  0  0  0  0  0  0  0
    3.5068   45.2775   50.1913 H   0  0  0  0  0  0  0  0  0  0  0  0
    3.3554   45.6336   51.9166 H   0  0  0  0  0  0  0  0  0  0  0  0
    6.1362   44.9835   49.4247 H   0  0  0  0  0  0  0  0  0  0  0  0
    5.5497   46.4603   50.2973 H   0  0  0  0  0  0  0  0  0  0  0  0
    7.9606   44.7769   51.1251 H   0  0  0  0  0  0  0  0  0  0  0  0
    8.0287   46.3279   50.1970 H   0  0  0  0  0  0  0  0  0  0  0  0
  1  2  1  0
  2  3  1  0
  3  4  1  0
  5  4  1  6
  5  6  1  0
  6  7  1  0
  7  8  1  0
  8  9  1  0
  9 10  2  0
  9 11  1  0
 11 12  2  0
 12 13  1  0
 13 14  2  0
 14 15  1  0
 15 16  1  0
 16 17  2  0
 17 18  1  0
 18 19  1  0
 14 20  1  0
  8 21  1  0
  5 22  1  0
 22 23  1  0
 23  2  1  0
 21  5  1  0
 20 11  1  0
 19 15  2  0
  1 24  1  0
  1 25  1  0
  1 26  1  0
  2 27  1  1
  3 28  1  0
  3 29  1  0
  4 30  1  0
  4 31  1  0
  6 32  1  0
  6 33  1  0
  7 34  1  0
  7 35  1  0
 12 36  1  0
 13 37  1  0
 18 38  1  0
 21 39  1  0
 21 40  1  0
 22 41  1  0
 22 42  1  0
 23 43  1  0
 23 44  1  0
M  END
>  <meeko>  (4) 
{"is_sidechain": [false], "free_energy": -8.511, "intermolecular_energy": -9.941, "internal_energy": -0.517}

$$$$
ligand_60_conformer_4_docked
     RDKit          3D

 44 47  0  0  0  0  0  0  0  0999 V2000
   -0.4280   41.5500   52.8800 C   0  0  0  0  0  0  0  0  0  0  0  0
   -0.2510   43.0630   52.6970 C   0  0  2  0  0  0  0  0  0  0  0  0
    1.1200   43.3960   52.0480 C   0  0  0  0  0  0  0  0  0  0  0  0
    2.1760   43.7430   53.1030 C   0  0  0  0  0  0  0  0  0  0  0  0
    1.7800   45.0170   53.9290 C   0  0  1  0  0  0  0  0  0  0  0  0
    2.4640   44.9660   55.3140 C   0  0  0  0  0  0  0  0  0  0  0  0
    3.8280   45.6120   55.1110 C   0  0  0  0  0  0  0  0  0  0  0  0
    3.6750   46.4680   53.9470 N   0  0  0  0  0  0  0  0  0  0  0  0
    4.7100   47.3690   53.5070 C   0  0  0  0  0  0  0  0  0  0  0  0
    4.6510   48.5850   53.8400 O   0  0  0  0  0  0  0  0  0  0  0  0
    5.8390   46.9190   52.6670 C   0  0  0  0  0  0  0  0  0  0  0  0
    7.0780   47.5300   52.5920 C   0  0  0  0  0  0  0  0  0  0  0  0
    7.8130   46.7890   51.6910 C   0  0  0  0  0  0  0  0  0  0  0  0
    6.9740   45.7750   51.2720 C   0  0  0  0  0  0  0  0  0  0  0  0
    7.3090   44.7240   50.3080 C   0  0  0  0  0  0  0  0  0  0  0  0
    8.5090   44.5900   49.7100 N   0  0  0  0  0  0  0  0  0  0  0  0
    8.3790   43.5290   48.9300 N   0  0  0  0  0  0  0  0  0  0  0  0
    7.1550   43.0460   49.0540 N   0  0  0  0  0  0  0  0  0  0  0  0
    6.4500   43.7660   49.9100 N   0  0  0  0  0  0  0  0  0  0  0  0
    5.8090   45.8780   51.8670 O   0  0  0  0  0  0  0  0  0  0  0  0
    2.3930   46.2780   53.2860 C   0  0  0  0  0  0  0  0  0  0  0  0
    0.2290   45.1610   54.0500 C   0  0  0  0  0  0  0  0  0  0  0  0
   -0.4680   43.7960   54.0460 C   0  0  0  0  0  0  0  0  0  0  0  0
   -0.4559   41.3113   53.9534 H   0  0  0  0  0  0  0  0  0  0  0  0
   -1.3695   41.2313   52.4089 H   0  0  0  0  0  0  0  0  0  0  0  0
    0.4146   41.0226   52.4089 H   0  0  0  0  0  0  0  0  0  0  0  0
   -1.0181   43.4285   51.9985 H   0  0  0  0  0  0  0  0  0  0  0  0
    1.4637   42.5236   51.4729 H   0  0  0  0  0  0  0  0  0  0  0  0
    0.9871   44.2708   51.3945 H   0  0  0  0  0  0  0  0  0  0  0  0
    2.2841   42.8920   53.7915 H   0  0  0  0  0  0  0  0  0  0  0  0
    3.1218   43.9541   52.5826 H   0  0  0  0  0  0  0  0  0  0  0  0
    1.8772   45.5290   56.0548 H   0  0  0  0  0  0  0  0  0  0  0  0
    2.5493   43.9366   55.6922 H   0  0  0  0  0  0  0  0  0  0  0  0
    4.1082   46.2067   55.9929 H   0  0  0  0  0  0  0  0  0  0  0  0
    4.6206   44.8626   54.9688 H   0  0  0  0  0  0  0  0  0  0  0  0
    7.4092   48.4247   53.1396 H   0  0  0  0  0  0  0  0  0  0  0  0
    8.8506   46.9680   51.3725 H   0  0  0  0  0  0  0  0  0  0  0  0
    6.7940   42.2090   48.5460 H   0  0  0  0  0  0  0  0  0  0  0  0
    1.7422   47.1491   53.4520 H   0  0  0  0  0  0  0  0  0  0  0  0
    2.5078   46.1662   52.1977 H   0  0  0  0  0  0  0  0  0  0  0  0
   -0.0087   45.6801   54.9902 H   0  0  0  0  0  0  0  0  0  0  0  0
   -0.1314   45.7331   53.1824 H   0  0  0  0  0  0  0  0  0  0  0  0
   -0.0571   43.1803   54.8597 H   0  0  0  0  0  0  0  0  0  0  0  0
   -1.5472   43.9541   54.1883 H   0  0  0  0  0  0  0  0  0  0  0  0
  1  2  1  0
  2  3  1  0
  3  4  1  0
  5  4  1  1
  5  6  1  0
  6  7  1  0
  7  8  1  0
  8  9  1  0
  9 10  2  0
  9 11  1  0
 11 12  2  0
 12 13  1  0
 13 14  2  0
 14 15  1  0
 15 16  1  0
 16 17  2  0
 17 18  1  0
 18 19  1  0
 14 20  1  0
  8 21  1  0
  5 22  1  0
 22 23  1  0
 23  2  1  0
 21  5  1  0
 20 11  1  0
 19 15  2  0
  1 24  1  0
  1 25  1  0
  1 26  1  0
  2 27  1  1
  3 28  1  0
  3 29  1  0
  4 30  1  0
  4 31  1  0
  6 32  1  0
  6 33  1  0
  7 34  1  0
  7 35  1  0
 12 36  1  0
 13 37  1  0
 18 38  1  0
 21 39  1  0
 21 40  1  0
 22 41  1  0
 22 42  1  0
 23 43  1  0
 23 44  1  0
M  END
>  <meeko>  (5) 
{"is_sidechain": [false], "free_energy": -8.312, "intermolecular_energy": -9.708, "internal_energy": -0.516}

$$$$
