MODEL 1
REMARK VINA RESULT:    -9.105      0.000      0.000
REMARK INTER + INTRA:         -11.687
REMARK INTER:                 -11.234
REMARK INTRA:                  -0.453
REMARK UNBOUND:                -0.453
REMARK SMILES CN1CC[C@@H]2[C@H]1CCCN2C(=O)[C@@H]1CCN(c2ccc(-c3nn[nH]n3)cc2F)C1
REMARK SMILES IDX 13 1 14 2 15 3 16 4 29 5 11 6 12 7 10 8 2 9 3 10 6 11 4 12
REMARK SMILES IDX 5 13 7 14 8 15 9 16 1 17 17 18 18 19 27 20 19 21 26 22 20 23
REMARK SMILES IDX 28 24 21 25 22 26 25 27 23 28 24 29
REMARK H PARENT 24 30
ROOT
ATOM      1  C   UNL     1       0.770  43.757  52.351  1.00  0.00     0.100 C 
ATOM      2  C   UNL     1       1.536  42.694  51.556  1.00  0.00     0.037 C 
ATOM      3  C   UNL     1       3.013  43.060  51.640  1.00  0.00     0.117 C 
ATOM      4  N   UNL     1       3.116  44.245  52.482  1.00  0.00    -0.368 N 
ATOM      5  C   UNL     1       1.815  44.722  52.929  1.00  0.00     0.130 C 
ENDROOT
BRANCH   1   6
ATOM      6  C   UNL     1      -0.151  43.143  53.386  1.00  0.00     0.227 C 
ATOM      7  O   UNL     1      -0.111  41.894  53.558  1.00  0.00    -0.274 OA
BRANCH   6   8
ATOM      8  N   UNL     1      -1.071  43.932  54.168  1.00  0.00    -0.338 N 
ATOM      9  N   UNL     1      -0.927  45.768  57.343  1.00  0.00    -0.301 NA
ATOM     10  C   UNL     1       0.472  45.326  57.208  1.00  0.00     0.086 C 
ATOM     11  C   UNL     1      -1.606  45.484  56.063  1.00  0.00     0.079 C 
ATOM     12  C   UNL     1       0.548  44.429  55.988  1.00  0.00     0.042 C 
ATOM     13  C   UNL     1      -0.544  44.964  55.081  1.00  0.00     0.103 C 
ATOM     14  C   UNL     1      -2.691  44.423  56.310  1.00  0.00     0.023 C 
ATOM     15  C   UNL     1      -3.411  44.026  55.014  1.00  0.00     0.023 C 
ATOM     16  C   UNL     1      -2.487  44.008  53.783  1.00  0.00     0.120 C 
ATOM     17  C   UNL     1      -1.011  47.190  57.709  1.00  0.00     0.105 C 
ENDBRANCH   6   8
ENDBRANCH   1   6
BRANCH   4  18
ATOM     18  C   UNL     1       4.384  44.866  52.826  1.00  0.00     0.073 A 
ATOM     19  C   UNL     1       4.899  44.745  54.135  1.00  0.00     0.030 A 
ATOM     20  C   UNL     1       5.139  45.606  51.883  1.00  0.00     0.147 A 
ATOM     21  C   UNL     1       6.113  45.337  54.491  1.00  0.00     0.014 A 
ATOM     22  C   UNL     1       6.352  46.201  52.250  1.00  0.00     0.053 A 
ATOM     23  C   UNL     1       6.848  46.072  53.555  1.00  0.00     0.026 A 
ATOM     24  F   UNL     1       4.731  45.766  50.601  1.00  0.00    -0.205 F 
BRANCH  23  25
ATOM     25  C   UNL     1       8.131  46.700  53.935  1.00  0.00     0.204 A 
ATOM     26  N   UNL     1       8.278  47.587  54.941  1.00  0.00    -0.108 NA
ATOM     27  N   UNL     1       9.308  46.461  53.323  1.00  0.00    -0.134 NA
ATOM     28  N   UNL     1       9.565  47.893  54.941  1.00  0.00    -0.050 NA
ATOM     29  N   UNL     1      10.169  47.221  53.976  1.00  0.00    -0.177 N 
ATOM     30  H   UNL     1      11.190  47.280  53.761  1.00  0.00     0.216 HD
ENDBRANCH  23  25
ENDBRANCH   4  18
TORSDOF 4
ENDMDL
MODEL 2
REMARK VINA RESULT:    -8.977      1.222      2.028
REMARK INTER + INTRA:         -11.529
REMARK INTER:                 -11.190
REMARK INTRA:                  -0.339
REMARK UNBOUND:                -0.453
REMARK SMILES CN1CC[C@@H]2[C@H]1CCCN2C(=O)[C@@H]1CCN(c2ccc(-c3nn[nH]n3)cc2F)C1
REMARK SMILES IDX 13 1 14 2 15 3 16 4 29 5 11 6 12 7 10 8 2 9 3 10 6 11 4 12
REMARK SMILES IDX 5 13 7 14 8 15 9 16 1 17 17 18 18 19 27 20 19 21 26 22 20 23
REMARK SMILES IDX 28 24 21 25 22 26 25 27 23 28 24 29
REMARK H PARENT 24 30
ROOT
ATOM      1  C   UNL     1       1.181  43.870  51.061  1.00  0.00     0.100 C 
ATOM      2  C   UNL     1       1.997  42.604  50.782  1.00  0.00     0.037 C 
ATOM      3  C   UNL     1       3.434  42.906  51.190  1.00  0.00     0.117 C 
ATOM      4  N   UNL     1       3.452  44.260  51.730  1.00  0.00    -0.368 N 
ATOM      5  C   UNL     1       2.145  44.898  51.671  1.00  0.00     0.130 C 
ENDROOT
BRANCH   1   6
ATOM      6  C   UNL     1      -0.043  43.585  51.909  1.00  0.00     0.227 C 
ATOM      7  O   UNL     1      -1.077  43.140  51.338  1.00  0.00    -0.274 OA
BRANCH   6   8
ATOM      8  N   UNL     1      -0.069  43.814  53.333  1.00  0.00    -0.338 N 
ATOM      9  N   UNL     1      -2.325  45.494  55.690  1.00  0.00    -0.301 NA
ATOM     10  C   UNL     1      -3.081  45.623  54.433  1.00  0.00     0.086 C 
ATOM     11  C   UNL     1      -1.203  44.568  55.438  1.00  0.00     0.079 C 
ATOM     12  C   UNL     1      -2.207  45.082  53.320  1.00  0.00     0.042 C 
ATOM     13  C   UNL     1      -1.363  44.026  54.008  1.00  0.00     0.103 C 
ATOM     14  C   UNL     1       0.115  45.346  55.586  1.00  0.00     0.023 C 
ATOM     15  C   UNL     1       1.337  44.467  55.281  1.00  0.00     0.023 C 
ATOM     16  C   UNL     1       1.089  43.444  54.158  1.00  0.00     0.120 C 
ATOM     17  C   UNL     1      -3.184  45.034  56.792  1.00  0.00     0.105 C 
ENDBRANCH   6   8
ENDBRANCH   1   6
BRANCH   4  18
ATOM     18  C   UNL     1       4.651  44.884  52.264  1.00  0.00     0.073 A 
ATOM     19  C   UNL     1       4.919  44.833  53.649  1.00  0.00     0.030 A 
ATOM     20  C   UNL     1       5.580  45.560  51.435  1.00  0.00     0.147 A 
ATOM     21  C   UNL     1       6.061  45.429  54.187  1.00  0.00     0.014 A 
ATOM     22  C   UNL     1       6.719  46.160  51.983  1.00  0.00     0.053 A 
ATOM     23  C   UNL     1       6.969  46.101  53.361  1.00  0.00     0.026 A 
ATOM     24  F   UNL     1       5.413  45.649  50.093  1.00  0.00    -0.205 F 
BRANCH  23  25
ATOM     25  C   UNL     1       8.176  46.734  53.933  1.00  0.00     0.204 A 
ATOM     26  N   UNL     1       8.161  47.651  54.922  1.00  0.00    -0.108 NA
ATOM     27  N   UNL     1       9.437  46.471  53.534  1.00  0.00    -0.134 NA
ATOM     28  N   UNL     1       9.432  47.951  55.129  1.00  0.00    -0.050 NA
ATOM     29  N   UNL     1      10.184  47.247  54.300  1.00  0.00    -0.177 N 
ATOM     30  H   UNL     1      11.226  47.295  54.259  1.00  0.00     0.216 HD
ENDBRANCH  23  25
ENDBRANCH   4  18
TORSDOF 4
ENDMDL
MODEL 3
REMARK VINA RESULT:    -8.719      3.130      9.024
REMARK INTER + INTRA:         -11.211
REMARK INTER:                 -10.573
REMARK INTRA:                  -0.638
REMARK UNBOUND:                -0.453
REMARK SMILES CN1CC[C@@H]2[C@H]1CCCN2C(=O)[C@@H]1CCN(c2ccc(-c3nn[nH]n3)cc2F)C1
REMARK SMILES IDX 13 1 14 2 15 3 16 4 29 5 11 6 12 7 10 8 2 9 3 10 6 11 4 12
REMARK SMILES IDX 5 13 7 14 8 15 9 16 1 17 17 18 18 19 27 20 19 21 26 22 20 23
REMARK SMILES IDX 28 24 21 25 22 26 25 27 23 28 24 29
REMARK H PARENT 24 30
ROOT
ATOM      1  C   UNL     1       4.895  46.259  52.242  1.00  0.00     0.100 C 
ATOM      2  C   UNL     1       4.993  47.359  53.303  1.00  0.00     0.037 C 
ATOM      3  C   UNL     1       3.781  47.203  54.213  1.00  0.00     0.117 C 
ATOM      4  N   UNL     1       3.037  46.040  53.744  1.00  0.00    -0.368 N 
ATOM      5  C   UNL     1       3.639  45.437  52.563  1.00  0.00     0.130 C 
ENDROOT
BRANCH   1   6
ATOM      6  C   UNL     1       6.167  45.439  52.149  1.00  0.00     0.227 C 
ATOM      7  O   UNL     1       6.863  45.292  53.191  1.00  0.00    -0.274 OA
BRANCH   6   8
ATOM      8  N   UNL     1       6.611  44.836  50.916  1.00  0.00    -0.338 N 
ATOM      9  N   UNL     1       5.970  41.685  49.146  1.00  0.00    -0.301 NA
ATOM     10  C   UNL     1       5.042  41.565  50.283  1.00  0.00     0.086 C 
ATOM     11  C   UNL     1       6.489  43.067  49.143  1.00  0.00     0.079 C 
ATOM     12  C   UNL     1       5.285  42.752  51.194  1.00  0.00     0.042 C 
ATOM     13  C   UNL     1       5.751  43.841  50.247  1.00  0.00     0.103 C 
ATOM     14  C   UNL     1       8.001  43.023  49.421  1.00  0.00     0.023 C 
ATOM     15  C   UNL     1       8.613  44.430  49.492  1.00  0.00     0.023 C 
ATOM     16  C   UNL     1       7.674  45.472  50.126  1.00  0.00     0.120 C 
ATOM     17  C   UNL     1       5.316  41.338  47.876  1.00  0.00     0.105 C 
ENDBRANCH   6   8
ENDBRANCH   1   6
BRANCH   4  18
ATOM     18  C   UNL     1       1.833  45.554  54.396  1.00  0.00     0.073 A 
ATOM     19  C   UNL     1       1.819  45.348  55.793  1.00  0.00     0.030 A 
ATOM     20  C   UNL     1       0.649  45.268  53.673  1.00  0.00     0.147 A 
ATOM     21  C   UNL     1       0.676  44.876  56.443  1.00  0.00     0.014 A 
ATOM     22  C   UNL     1      -0.490  44.789  54.331  1.00  0.00     0.053 A 
ATOM     23  C   UNL     1      -0.486  44.589  55.718  1.00  0.00     0.026 A 
ATOM     24  F   UNL     1       0.564  45.446  52.333  1.00  0.00    -0.205 F 
BRANCH  23  25
ATOM     25  C   UNL     1      -1.694  44.087  56.408  1.00  0.00     0.204 A 
ATOM     26  N   UNL     1      -2.404  43.010  56.015  1.00  0.00    -0.108 NA
ATOM     27  N   UNL     1      -2.230  44.646  57.511  1.00  0.00    -0.134 NA
ATOM     28  N   UNL     1      -3.388  42.911  56.893  1.00  0.00    -0.050 NA
ATOM     29  N   UNL     1      -3.278  43.886  57.778  1.00  0.00    -0.177 N 
ATOM     30  H   UNL     1      -3.929  44.035  58.580  1.00  0.00     0.216 HD
ENDBRANCH  23  25
ENDBRANCH   4  18
TORSDOF 4
ENDMDL
MODEL 4
REMARK VINA RESULT:    -8.557      2.340      8.568
REMARK INTER + INTRA:         -11.010
REMARK INTER:                 -10.638
REMARK INTRA:                  -0.373
REMARK UNBOUND:                -0.453
REMARK SMILES CN1CC[C@@H]2[C@H]1CCCN2C(=O)[C@@H]1CCN(c2ccc(-c3nn[nH]n3)cc2F)C1
REMARK SMILES IDX 13 1 14 2 15 3 16 4 29 5 11 6 12 7 10 8 2 9 3 10 6 11 4 12
REMARK SMILES IDX 5 13 7 14 8 15 9 16 1 17 17 18 18 19 27 20 19 21 26 22 20 23
REMARK SMILES IDX 28 24 21 25 22 26 25 27 23 28 24 29
REMARK H PARENT 24 30
ROOT
ATOM      1  C   UNL     1       2.643  43.599  51.718  1.00  0.00     0.100 C 
ATOM      2  C   UNL     1       2.073  44.944  51.258  1.00  0.00     0.037 C 
ATOM      3  C   UNL     1       0.995  45.333  52.263  1.00  0.00     0.117 C 
ATOM      4  N   UNL     1       0.969  44.298  53.288  1.00  0.00    -0.368 N 
ATOM      5  C   UNL     1       1.917  43.227  53.019  1.00  0.00     0.130 C 
ENDROOT
BRANCH   1   6
ATOM      6  C   UNL     1       4.154  43.629  51.835  1.00  0.00     0.227 C 
ATOM      7  O   UNL     1       4.819  42.732  51.248  1.00  0.00    -0.274 OA
BRANCH   6   8
ATOM      8  N   UNL     1       4.851  44.635  52.599  1.00  0.00    -0.338 N 
ATOM      9  N   UNL     1       7.829  46.723  52.104  1.00  0.00    -0.301 NA
ATOM     10  C   UNL     1       7.742  46.040  50.802  1.00  0.00     0.086 C 
ATOM     11  C   UNL     1       6.581  46.434  52.839  1.00  0.00     0.079 C 
ATOM     12  C   UNL     1       6.618  45.028  50.894  1.00  0.00     0.042 C 
ATOM     13  C   UNL     1       5.659  45.648  51.893  1.00  0.00     0.103 C 
ATOM     14  C   UNL     1       6.929  45.601  54.083  1.00  0.00     0.023 C 
ATOM     15  C   UNL     1       5.676  45.206  54.878  1.00  0.00     0.023 C 
ATOM     16  C   UNL     1       4.456  44.911  53.987  1.00  0.00     0.120 C 
ATOM     17  C   UNL     1       8.052  48.168  51.942  1.00  0.00     0.105 C 
ENDBRANCH   6   8
ENDBRANCH   1   6
BRANCH   4  18
ATOM     18  C   UNL     1       0.089  44.349  54.444  1.00  0.00     0.073 A 
ATOM     19  C   UNL     1      -1.222  43.831  54.358  1.00  0.00     0.030 A 
ATOM     20  C   UNL     1       0.498  44.912  55.678  1.00  0.00     0.147 A 
ATOM     21  C   UNL     1      -2.089  43.872  55.451  1.00  0.00     0.014 A 
ATOM     22  C   UNL     1      -0.380  44.956  56.767  1.00  0.00     0.053 A 
ATOM     23  C   UNL     1      -1.678  44.437  56.664  1.00  0.00     0.026 A 
ATOM     24  F   UNL     1       1.740  45.422  55.858  1.00  0.00    -0.205 F 
BRANCH  23  25
ATOM     25  C   UNL     1      -2.599  44.483  57.819  1.00  0.00     0.204 A 
ATOM     26  N   UNL     1      -2.967  43.407  58.544  1.00  0.00    -0.108 NA
ATOM     27  N   UNL     1      -3.180  45.606  58.287  1.00  0.00    -0.134 NA
ATOM     28  N   UNL     1      -3.786  43.882  59.468  1.00  0.00    -0.050 NA
ATOM     29  N   UNL     1      -3.907  45.189  59.308  1.00  0.00    -0.177 N 
ATOM     30  H   UNL     1      -4.497  45.807  59.908  1.00  0.00     0.216 HD
ENDBRANCH  23  25
ENDBRANCH   4  18
TORSDOF 4
ENDMDL
MODEL 5
REMARK VINA RESULT:    -8.289      2.483      8.644
REMARK INTER + INTRA:         -10.680
REMARK INTER:                 -10.066
REMARK INTRA:                  -0.614
REMARK UNBOUND:                -0.453
REMARK SMILES CN1CC[C@@H]2[C@H]1CCCN2C(=O)[C@@H]1CCN(c2ccc(-c3nn[nH]n3)cc2F)C1
REMARK SMILES IDX 13 1 14 2 15 3 16 4 29 5 11 6 12 7 10 8 2 9 3 10 6 11 4 12
REMARK SMILES IDX 5 13 7 14 8 15 9 16 1 17 17 18 18 19 27 20 19 21 26 22 20 23
REMARK SMILES IDX 28 24 21 25 22 26 25 27 23 28 24 29
REMARK H PARENT 24 30
ROOT
ATOM      1  C   UNL     1       3.643  43.741  52.757  1.00  0.00     0.100 C 
ATOM      2  C   UNL     1       2.542  42.766  52.327  1.00  0.00     0.037 C 
ATOM      3  C   UNL     1       1.338  43.037  53.222  1.00  0.00     0.117 C 
ATOM      4  N   UNL     1       1.694  44.147  54.097  1.00  0.00    -0.368 N 
ATOM      5  C   UNL     1       3.059  44.606  53.883  1.00  0.00     0.130 C 
ENDROOT
BRANCH   1   6
ATOM      6  C   UNL     1       4.196  44.531  51.588  1.00  0.00     0.227 C 
ATOM      7  O   UNL     1       3.385  45.146  50.843  1.00  0.00    -0.274 OA
BRANCH   6   8
ATOM      8  N   UNL     1       5.607  44.593  51.295  1.00  0.00    -0.338 N 
ATOM      9  N   UNL     1       8.312  47.006  51.872  1.00  0.00    -0.301 NA
ATOM     10  C   UNL     1       7.195  47.659  52.576  1.00  0.00     0.086 C 
ATOM     11  C   UNL     1       7.874  45.642  51.517  1.00  0.00     0.079 C 
ATOM     12  C   UNL     1       5.950  46.834  52.316  1.00  0.00     0.042 C 
ATOM     13  C   UNL     1       6.485  45.425  52.139  1.00  0.00     0.103 C 
ATOM     14  C   UNL     1       7.812  45.531  49.985  1.00  0.00     0.023 C 
ATOM     15  C   UNL     1       7.307  44.154  49.529  1.00  0.00     0.023 C 
ATOM     16  C   UNL     1       6.231  43.561  50.457  1.00  0.00     0.120 C 
ATOM     17  C   UNL     1       9.535  46.999  52.689  1.00  0.00     0.105 C 
ENDBRANCH   6   8
ENDBRANCH   1   6
BRANCH   4  18
ATOM     18  C   UNL     1       0.774  44.717  55.068  1.00  0.00     0.073 A 
ATOM     19  C   UNL     1       1.263  45.227  56.290  1.00  0.00     0.030 A 
ATOM     20  C   UNL     1      -0.621  44.780  54.835  1.00  0.00     0.147 A 
ATOM     21  C   UNL     1       0.400  45.775  57.241  1.00  0.00     0.014 A 
ATOM     22  C   UNL     1      -1.480  45.324  55.796  1.00  0.00     0.053 A 
ATOM     23  C   UNL     1      -0.979  45.826  57.005  1.00  0.00     0.026 A 
ATOM     24  F   UNL     1      -1.180  44.326  53.687  1.00  0.00    -0.205 F 
BRANCH  23  25
ATOM     25  C   UNL     1      -1.891  46.403  58.015  1.00  0.00     0.204 A 
ATOM     26  N   UNL     1      -1.492  47.148  59.066  1.00  0.00    -0.108 NA
ATOM     27  N   UNL     1      -3.230  46.254  58.005  1.00  0.00    -0.134 NA
ATOM     28  N   UNL     1      -2.607  47.458  59.707  1.00  0.00    -0.050 NA
ATOM     29  N   UNL     1      -3.635  46.923  59.071  1.00  0.00    -0.177 N 
ATOM     30  H   UNL     1      -4.631  47.017  59.370  1.00  0.00     0.216 HD
ENDBRANCH  23  25
ENDBRANCH   4  18
TORSDOF 4
ENDMDL
