ligand_57_conformer_4_docked
     RDKit          3D

 45 49  0  0  0  0  0  0  0  0999 V2000
    3.5000   46.0160   56.0030 O   0  0  0  0  0  0  0  0  0  0  0  0
    4.2890   46.2130   54.8610 C   0  0  0  0  0  0  0  0  0  0  0  0
    4.4200   44.9010   54.0780 C   0  0  0  0  0  0  0  0  0  0  0  0
    4.1780   45.0670   52.5610 C   0  0  1  0  0  0  0  0  0  0  0  0
    5.1330   46.1480   51.9730 C   0  0  0  0  0  0  0  0  0  0  0  0
    6.0780   45.4300   51.1210 N   0  0  0  0  0  0  0  0  0  0  0  0
    7.2430   46.0410   50.4840 C   0  0  0  0  0  0  0  0  0  0  0  0
    8.3550   46.2620   51.5090 C   0  0  2  0  0  0  0  0  0  0  0  0
    8.6860   47.6710   51.9800 C   0  0  0  0  0  0  0  0  0  0  0  0
    9.2440   46.8310   53.1110 C   0  0  2  0  0  0  0  0  0  0  0  0
    9.5200   47.4520   54.4430 C   0  0  0  0  0  0  0  0  0  0  0  0
   10.5810   47.1480   55.2160 N   0  0  0  0  0  0  0  0  0  0  0  0
   10.4850   47.9590   56.2550 N   0  0  0  0  0  0  0  0  0  0  0  0
    9.4180   48.7270   56.1090 N   0  0  0  0  0  0  0  0  0  0  0  0
    8.7890   48.4460   54.9820 N   0  0  0  0  0  0  0  0  0  0  0  0
   10.3360   46.0890   52.3610 C   0  0  0  0  0  0  0  0  0  0  0  0
    9.6170   45.6940   51.1990 O   0  0  0  0  0  0  0  0  0  0  0  0
    8.1080   45.8410   52.9500 C   0  0  0  0  0  0  0  0  0  0  0  0
    5.6510   44.0830   51.0000 C   0  0  0  0  0  0  0  0  0  0  0  0
    6.1590   43.1110   50.1300 C   0  0  0  0  0  0  0  0  0  0  0  0
    5.5200   41.8640   50.0750 C   0  0  0  0  0  0  0  0  0  0  0  0
    4.3740   41.6200   50.8550 C   0  0  0  0  0  0  0  0  0  0  0  0
    3.8720   42.6190   51.7030 C   0  0  0  0  0  0  0  0  0  0  0  0
    4.5510   43.8400   51.7810 C   0  0  0  0  0  0  0  0  0  0  0  0
    3.9420   46.5090   56.7430 H   0  0  0  0  0  0  0  0  0  0  0  0
    3.8184   46.9735   54.2205 H   0  0  0  0  0  0  0  0  0  0  0  0
    5.2899   46.5500   55.1687 H   0  0  0  0  0  0  0  0  0  0  0  0
    5.4351   44.5048   54.2282 H   0  0  0  0  0  0  0  0  0  0  0  0
    3.6471   44.2167   54.4579 H   0  0  0  0  0  0  0  0  0  0  0  0
    3.1087   45.3095   52.4721 H   0  0  0  0  0  0  0  0  0  0  0  0
    4.5637   46.8794   51.3806 H   0  0  0  0  0  0  0  0  0  0  0  0
    5.6502   46.7044   52.7686 H   0  0  0  0  0  0  0  0  0  0  0  0
    7.6106   45.3772   49.6876 H   0  0  0  0  0  0  0  0  0  0  0  0
    6.9497   47.0128   50.0601 H   0  0  0  0  0  0  0  0  0  0  0  0
    9.4152   48.2329   51.3779 H   0  0  0  0  0  0  0  0  0  0  0  0
    7.9814   48.5103   52.0756 H   0  0  0  0  0  0  0  0  0  0  0  0
    9.1170   49.4590   56.7890 H   0  0  0  0  0  0  0  0  0  0  0  0
   11.1808   46.7485   52.1132 H   0  0  0  0  0  0  0  0  0  0  0  0
   10.8012   45.2634   52.9195 H   0  0  0  0  0  0  0  0  0  0  0  0
    8.3288   44.7931   53.2015 H   0  0  0  0  0  0  0  0  0  0  0  0
    7.1444   45.8606   53.4802 H   0  0  0  0  0  0  0  0  0  0  0  0
    7.0390   43.3206   49.5041 H   0  0  0  0  0  0  0  0  0  0  0  0
    5.9157   41.0738   49.4200 H   0  0  0  0  0  0  0  0  0  0  0  0
    3.8706   40.6435   50.7997 H   0  0  0  0  0  0  0  0  0  0  0  0
    2.9616   42.4455   52.2955 H   0  0  0  0  0  0  0  0  0  0  0  0
  1  2  1  0
  2  3  1  0
  3  4  1  0
  4  5  1  0
  5  6  1  0
  6  7  1  0
  8  7  1  6
  8  9  1  0
  9 10  1  0
 10 11  1  1
 11 12  1  0
 12 13  2  0
 13 14  1  0
 14 15  1  0
 10 16  1  0
 16 17  1  0
 10 18  1  0
  6 19  1  0
 19 20  2  0
 20 21  1  0
 21 22  2  0
 22 23  1  0
 23 24  2  0
 24  4  1  0
 17  8  1  0
 24 19  1  0
 18  8  1  0
 15 11  2  0
  1 25  1  0
  2 26  1  0
  2 27  1  0
  3 28  1  0
  3 29  1  0
  4 30  1  1
  5 31  1  0
  5 32  1  0
  7 33  1  0
  7 34  1  0
  9 35  1  0
  9 36  1  0
 14 37  1  0
 16 38  1  0
 16 39  1  0
 18 40  1  0
 18 41  1  0
 20 42  1  0
 21 43  1  0
 22 44  1  0
 23 45  1  0
M  END
>  <meeko>  (1) 
{"is_sidechain": [false], "free_energy": -9.624, "intermolecular_energy": -12.719, "internal_energy": -0.27}

$$$$
ligand_57_conformer_4_docked
     RDKit          3D

 45 49  0  0  0  0  0  0  0  0999 V2000
    8.4420   43.4260   48.9590 O   0  0  0  0  0  0  0  0  0  0  0  0
    7.0580   43.4190   49.1850 C   0  0  0  0  0  0  0  0  0  0  0  0
    6.7430   44.0380   50.5510 C   0  0  0  0  0  0  0  0  0  0  0  0
    6.9280   45.5720   50.5850 C   0  0  1  0  0  0  0  0  0  0  0  0
    5.6690   46.2580   51.1940 C   0  0  0  0  0  0  0  0  0  0  0  0
    6.0890   46.7950   52.4860 N   0  0  0  0  0  0  0  0  0  0  0  0
    5.1820   47.3950   53.4630 C   0  0  0  0  0  0  0  0  0  0  0  0
    4.1550   46.3670   53.9370 C   0  0  2  0  0  0  0  0  0  0  0  0
    2.8080   46.2580   53.2360 C   0  0  0  0  0  0  0  0  0  0  0  0
    2.9210   44.8980   53.8940 C   0  0  2  0  0  0  0  0  0  0  0  0
    2.0790   43.7590   53.4160 C   0  0  0  0  0  0  0  0  0  0  0  0
    0.9380   43.3580   54.0100 N   0  0  0  0  0  0  0  0  0  0  0  0
    0.4810   42.3840   53.2410 N   0  0  0  0  0  0  0  0  0  0  0  0
    1.3060   42.2140   52.2210 N   0  0  0  0  0  0  0  0  0  0  0  0
    2.3170   43.0620   52.2880 N   0  0  0  0  0  0  0  0  0  0  0  0
    2.8990   45.3190   55.3530 C   0  0  0  0  0  0  0  0  0  0  0  0
    3.8270   46.3960   55.3160 O   0  0  0  0  0  0  0  0  0  0  0  0
    4.4180   44.8950   53.6540 C   0  0  0  0  0  0  0  0  0  0  0  0
    7.4960   46.6650   52.6000 C   0  0  0  0  0  0  0  0  0  0  0  0
    8.3180   47.2190   53.5870 C   0  0  0  0  0  0  0  0  0  0  0  0
    9.7080   47.0750   53.4580 C   0  0  0  0  0  0  0  0  0  0  0  0
   10.2510   46.4170   52.3390 C   0  0  0  0  0  0  0  0  0  0  0  0
    9.4050   45.8900   51.3510 C   0  0  0  0  0  0  0  0  0  0  0  0
    8.0210   46.0000   51.5210 C   0  0  0  0  0  0  0  0  0  0  0  0
    8.7270   44.3780   48.9660 H   0  0  0  0  0  0  0  0  0  0  0  0
    6.5581   44.0021   48.3976 H   0  0  0  0  0  0  0  0  0  0  0  0
    6.6964   42.3802   49.1691 H   0  0  0  0  0  0  0  0  0  0  0  0
    5.6984   43.8067   50.8065 H   0  0  0  0  0  0  0  0  0  0  0  0
    7.4518   43.6085   51.2743 H   0  0  0  0  0  0  0  0  0  0  0  0
    7.1380   45.8526   49.5423 H   0  0  0  0  0  0  0  0  0  0  0  0
    5.3206   47.0692   50.5378 H   0  0  0  0  0  0  0  0  0  0  0  0
    4.8364   45.5476   51.3041 H   0  0  0  0  0  0  0  0  0  0  0  0
    5.7632   47.7515   54.3262 H   0  0  0  0  0  0  0  0  0  0  0  0
    4.6535   48.2360   52.9903 H   0  0  0  0  0  0  0  0  0  0  0  0
    2.0074   46.9173   53.6027 H   0  0  0  0  0  0  0  0  0  0  0  0
    2.6074   46.4543   52.1724 H   0  0  0  0  0  0  0  0  0  0  0  0
    1.1730   41.5110   51.4620 H   0  0  0  0  0  0  0  0  0  0  0  0
    1.8988   45.6531   55.6660 H   0  0  0  0  0  0  0  0  0  0  0  0
    3.1458   44.5206   56.0683 H   0  0  0  0  0  0  0  0  0  0  0  0
    5.0333   44.3547   54.3885 H   0  0  0  0  0  0  0  0  0  0  0  0
    4.9383   44.4810   52.7777 H   0  0  0  0  0  0  0  0  0  0  0  0
    7.8849   47.7551   54.4444 H   0  0  0  0  0  0  0  0  0  0  0  0
   10.3752   47.4778   54.2342 H   0  0  0  0  0  0  0  0  0  0  0  0
   11.3417   46.3154   52.2383 H   0  0  0  0  0  0  0  0  0  0  0  0
    9.8226   45.3995   50.4594 H   0  0  0  0  0  0  0  0  0  0  0  0
  1  2  1  0
  2  3  1  0
  3  4  1  0
  4  5  1  0
  5  6  1  0
  6  7  1  0
  8  7  1  6
  8  9  1  0
  9 10  1  0
 10 11  1  1
 11 12  1  0
 12 13  2  0
 13 14  1  0
 14 15  1  0
 10 16  1  0
 16 17  1  0
 10 18  1  0
  6 19  1  0
 19 20  2  0
 20 21  1  0
 21 22  2  0
 22 23  1  0
 23 24  2  0
 24  4  1  0
 17  8  1  0
 24 19  1  0
 18  8  1  0
 15 11  2  0
  1 25  1  0
  2 26  1  0
  2 27  1  0
  3 28  1  0
  3 29  1  0
  4 30  1  6
  5 31  1  0
  5 32  1  0
  7 33  1  0
  7 34  1  0
  9 35  1  0
  9 36  1  0
 14 37  1  0
 16 38  1  0
 16 39  1  0
 18 40  1  0
 18 41  1  0
 20 42  1  0
 21 43  1  0
 22 44  1  0
 23 45  1  0
M  END
>  <meeko>  (2) 
{"is_sidechain": [false], "free_energy": -8.998, "intermolecular_energy": -11.984, "internal_energy": -0.177}

$$$$
ligand_57_conformer_4_docked
     RDKit          3D

 45 49  0  0  0  0  0  0  0  0999 V2000
    4.0140   41.0380   51.2870 O   0  0  0  0  0  0  0  0  0  0  0  0
    3.3720   42.0270   50.5270 C   0  0  0  0  0  0  0  0  0  0  0  0
    3.1660   43.2900   51.3720 C   0  0  0  0  0  0  0  0  0  0  0  0
    4.3700   43.6200   52.2830 C   0  0  1  0  0  0  0  0  0  0  0  0
    5.6050   44.0290   51.4250 C   0  0  0  0  0  0  0  0  0  0  0  0
    5.8120   45.4540   51.6710 N   0  0  0  0  0  0  0  0  0  0  0  0
    6.7800   46.2820   50.9540 C   0  0  0  0  0  0  0  0  0  0  0  0
    8.0340   46.4890   51.8020 C   0  0  2  0  0  0  0  0  0  0  0  0
    8.3440   47.8650   52.3760 C   0  0  0  0  0  0  0  0  0  0  0  0
    9.1450   46.9630   53.2930 C   0  0  2  0  0  0  0  0  0  0  0  0
    9.6030   47.4620   54.6260 C   0  0  0  0  0  0  0  0  0  0  0  0
   10.6270   46.9320   55.3230 N   0  0  0  0  0  0  0  0  0  0  0  0
   10.7420   47.7010   56.3920 N   0  0  0  0  0  0  0  0  0  0  0  0
    9.8320   48.6600   56.3360 N   0  0  0  0  0  0  0  0  0  0  0  0
    9.1030   48.5510   55.2400 N   0  0  0  0  0  0  0  0  0  0  0  0
   10.1400   46.4010   52.2930 C   0  0  0  0  0  0  0  0  0  0  0  0
    9.2590   46.0690   51.2250 O   0  0  0  0  0  0  0  0  0  0  0  0
    8.0680   45.9000   53.2050 C   0  0  0  0  0  0  0  0  0  0  0  0
    4.9560   45.8650   52.7240 C   0  0  0  0  0  0  0  0  0  0  0  0
    4.9710   47.0930   53.3950 C   0  0  0  0  0  0  0  0  0  0  0  0
    4.1180   47.2650   54.4950 C   0  0  0  0  0  0  0  0  0  0  0  0
    3.2970   46.2070   54.9260 C   0  0  0  0  0  0  0  0  0  0  0  0
    3.3160   44.9770   54.2500 C   0  0  0  0  0  0  0  0  0  0  0  0
    4.1370   44.8410   53.1260 C   0  0  0  0  0  0  0  0  0  0  0  0
    4.1720   41.4270   52.1860 H   0  0  0  0  0  0  0  0  0  0  0  0
    3.9911   42.2720   49.6514 H   0  0  0  0  0  0  0  0  0  0  0  0
    2.3923   41.6496   50.1989 H   0  0  0  0  0  0  0  0  0  0  0  0
    2.9980   44.1399   50.6941 H   0  0  0  0  0  0  0  0  0  0  0  0
    2.3025   43.1055   52.0279 H   0  0  0  0  0  0  0  0  0  0  0  0
    4.5188   42.7152   52.8906 H   0  0  0  0  0  0  0  0  0  0  0  0
    6.4914   43.4552   51.7332 H   0  0  0  0  0  0  0  0  0  0  0  0
    5.4392   43.8244   50.3570 H   0  0  0  0  0  0  0  0  0  0  0  0
    7.0567   45.7839   50.0131 H   0  0  0  0  0  0  0  0  0  0  0  0
    6.3256   47.2614   50.7433 H   0  0  0  0  0  0  0  0  0  0  0  0
    8.9181   48.5487   51.7333 H   0  0  0  0  0  0  0  0  0  0  0  0
    7.6106   48.6247   52.6843 H   0  0  0  0  0  0  0  0  0  0  0  0
    9.7120   49.4050   57.0560 H   0  0  0  0  0  0  0  0  0  0  0  0
   10.8830   47.1534   51.9900 H   0  0  0  0  0  0  0  0  0  0  0  0
   10.7495   45.5651   52.6668 H   0  0  0  0  0  0  0  0  0  0  0  0
    8.3995   44.8548   53.2923 H   0  0  0  0  0  0  0  0  0  0  0  0
    7.2111   45.7804   53.8843 H   0  0  0  0  0  0  0  0  0  0  0  0
    5.6367   47.9050   53.0671 H   0  0  0  0  0  0  0  0  0  0  0  0
    4.0909   48.2300   55.0223 H   0  0  0  0  0  0  0  0  0  0  0  0
    2.6378   46.3442   55.7959 H   0  0  0  0  0  0  0  0  0  0  0  0
    2.6973   44.1365   54.5975 H   0  0  0  0  0  0  0  0  0  0  0  0
  1  2  1  0
  2  3  1  0
  3  4  1  0
  4  5  1  0
  5  6  1  0
  6  7  1  0
  8  7  1  6
  8  9  1  0
  9 10  1  0
 10 11  1  1
 11 12  1  0
 12 13  2  0
 13 14  1  0
 14 15  1  0
 10 16  1  0
 16 17  1  0
 10 18  1  0
  6 19  1  0
 19 20  2  0
 20 21  1  0
 21 22  2  0
 22 23  1  0
 23 24  2  0
 24  4  1  0
 17  8  1  0
 24 19  1  0
 18  8  1  0
 15 11  2  0
  1 25  1  0
  2 26  1  0
  2 27  1  0
  3 28  1  0
  3 29  1  0
  4 30  1  1
  5 31  1  0
  5 32  1  0
  7 33  1  0
  7 34  1  0
  9 35  1  0
  9 36  1  0
 14 37  1  0
 16 38  1  0
 16 39  1  0
 18 40  1  0
 18 41  1  0
 20 42  1  0
 21 43  1  0
 22 44  1  0
 23 45  1  0
M  END
>  <meeko>  (3) 
{"is_sidechain": [false], "free_energy": -8.513, "intermolecular_energy": -11.528, "internal_energy": 0.007}

$$$$
ligand_57_conformer_4_docked
     RDKit          3D

 45 49  0  0  0  0  0  0  0  0999 V2000
   10.4530   48.3600   57.0040 O   0  0  0  0  0  0  0  0  0  0  0  0
   10.6280   47.6810   55.7890 C   0  0  0  0  0  0  0  0  0  0  0  0
    9.4400   47.9510   54.8580 C   0  0  0  0  0  0  0  0  0  0  0  0
    8.6840   46.6690   54.4430 C   0  0  1  0  0  0  0  0  0  0  0  0
    7.1450   46.8970   54.5180 C   0  0  0  0  0  0  0  0  0  0  0  0
    6.6700   46.8880   53.1360 N   0  0  0  0  0  0  0  0  0  0  0  0
    5.3020   47.2110   52.7330 C   0  0  0  0  0  0  0  0  0  0  0  0
    4.4880   45.9320   52.5410 C   0  0  2  0  0  0  0  0  0  0  0  0
    4.1250   45.4670   51.1380 C   0  0  0  0  0  0  0  0  0  0  0  0
    3.9980   44.1810   51.9290 C   0  0  2  0  0  0  0  0  0  0  0  0
    4.0150   42.8610   51.2280 C   0  0  0  0  0  0  0  0  0  0  0  0
    5.1350   42.2390   50.8100 N   0  0  0  0  0  0  0  0  0  0  0  0
    4.7160   41.0870   50.3130 N   0  0  0  0  0  0  0  0  0  0  0  0
    3.4010   41.0150   50.4360 N   0  0  0  0  0  0  0  0  0  0  0  0
    2.9230   42.1030   51.0130 N   0  0  0  0  0  0  0  0  0  0  0  0
    2.8450   44.5580   52.8430 C   0  0  0  0  0  0  0  0  0  0  0  0
    3.2690   45.8500   53.2610 O   0  0  0  0  0  0  0  0  0  0  0  0
    5.1620   44.5950   52.8070 C   0  0  0  0  0  0  0  0  0  0  0  0
    7.7340   46.4850   52.2890 C   0  0  0  0  0  0  0  0  0  0  0  0
    7.6550   46.1640   50.9300 C   0  0  0  0  0  0  0  0  0  0  0  0
    8.8030   45.6690   50.2920 C   0  0  0  0  0  0  0  0  0  0  0  0
    9.9890   45.4720   51.0230 C   0  0  0  0  0  0  0  0  0  0  0  0
   10.0350   45.7800   52.3920 C   0  0  0  0  0  0  0  0  0  0  0  0
    8.8950   46.3180   52.9980 C   0  0  0  0  0  0  0  0  0  0  0  0
   10.5780   47.6900   57.7260 H   0  0  0  0  0  0  0  0  0  0  0  0
   11.5538   48.0293   55.3077 H   0  0  0  0  0  0  0  0  0  0  0  0
   10.6921   46.6008   55.9865 H   0  0  0  0  0  0  0  0  0  0  0  0
    8.7360   48.6193   55.3754 H   0  0  0  0  0  0  0  0  0  0  0  0
    9.8425   48.4032   53.9396 H   0  0  0  0  0  0  0  0  0  0  0  0
    9.0604   45.8889   55.1211 H   0  0  0  0  0  0  0  0  0  0  0  0
    6.6664   46.0900   55.0922 H   0  0  0  0  0  0  0  0  0  0  0  0
    6.9015   47.8438   55.0222 H   0  0  0  0  0  0  0  0  0  0  0  0
    4.8303   47.8274   53.5125 H   0  0  0  0  0  0  0  0  0  0  0  0
    5.3307   47.7623   51.7816 H   0  0  0  0  0  0  0  0  0  0  0  0
    3.1979   45.8746   50.7087 H   0  0  0  0  0  0  0  0  0  0  0  0
    4.7209   45.6166   50.2256 H   0  0  0  0  0  0  0  0  0  0  0  0
    2.8210   40.2050   50.1260 H   0  0  0  0  0  0  0  0  0  0  0  0
    1.8899   44.5986   52.2988 H   0  0  0  0  0  0  0  0  0  0  0  0
    2.6525   43.8479   53.6608 H   0  0  0  0  0  0  0  0  0  0  0  0
    5.1474   44.2345   53.8461 H   0  0  0  0  0  0  0  0  0  0  0  0
    6.2225   44.3540   52.6420 H   0  0  0  0  0  0  0  0  0  0  0  0
    6.7151   46.2964   50.3741 H   0  0  0  0  0  0  0  0  0  0  0  0
    8.7754   45.4344   49.2177 H   0  0  0  0  0  0  0  0  0  0  0  0
   10.8833   45.0753   50.5201 H   0  0  0  0  0  0  0  0  0  0  0  0
   10.9496   45.6017   52.9765 H   0  0  0  0  0  0  0  0  0  0  0  0
  1  2  1  0
  2  3  1  0
  3  4  1  0
  4  5  1  0
  5  6  1  0
  6  7  1  0
  8  7  1  6
  8  9  1  0
  9 10  1  0
 10 11  1  6
 11 12  1  0
 12 13  2  0
 13 14  1  0
 14 15  1  0
 10 16  1  0
 16 17  1  0
 10 18  1  0
  6 19  1  0
 19 20  2  0
 20 21  1  0
 21 22  2  0
 22 23  1  0
 23 24  2  0
 24  4  1  0
 17  8  1  0
 24 19  1  0
 18  8  1  0
 15 11  2  0
  1 25  1  0
  2 26  1  0
  2 27  1  0
  3 28  1  0
  3 29  1  0
  4 30  1  1
  5 31  1  0
  5 32  1  0
  7 33  1  0
  7 34  1  0
  9 35  1  0
  9 36  1  0
 14 37  1  0
 16 38  1  0
 16 39  1  0
 18 40  1  0
 18 41  1  0
 20 42  1  0
 21 43  1  0
 22 44  1  0
 23 45  1  0
M  END
>  <meeko>  (4) 
{"is_sidechain": [false], "free_energy": -8.411, "intermolecular_energy": -11.171, "internal_energy": -0.214}

$$$$
ligand_57_conformer_4_docked
     RDKit          3D

 45 49  0  0  0  0  0  0  0  0999 V2000
    2.5630   44.1560   54.6180 O   0  0  0  0  0  0  0  0  0  0  0  0
    1.4380   43.9200   53.8150 C   0  0  0  0  0  0  0  0  0  0  0  0
    1.7200   42.7760   52.8340 C   0  0  0  0  0  0  0  0  0  0  0  0
    2.1090   43.2640   51.4210 C   0  0  1  0  0  0  0  0  0  0  0  0
    2.3640   44.8000   51.4270 C   0  0  0  0  0  0  0  0  0  0  0  0
    3.7990   44.9710   51.2120 N   0  0  0  0  0  0  0  0  0  0  0  0
    4.4960   46.2530   51.2910 C   0  0  0  0  0  0  0  0  0  0  0  0
    5.3570   46.3140   52.5520 C   0  0  2  0  0  0  0  0  0  0  0  0
    6.7470   45.6940   52.5550 C   0  0  0  0  0  0  0  0  0  0  0  0
    6.8490   46.6780   53.7030 C   0  0  2  0  0  0  0  0  0  0  0  0
    8.1880   47.1150   54.2030 C   0  0  0  0  0  0  0  0  0  0  0  0
    8.3720   48.0040   55.1980 N   0  0  0  0  0  0  0  0  0  0  0  0
    9.6830   48.0510   55.3700 N   0  0  0  0  0  0  0  0  0  0  0  0
   10.2610   47.2180   54.5210 N   0  0  0  0  0  0  0  0  0  0  0  0
    9.3590   46.6040   53.7770 N   0  0  0  0  0  0  0  0  0  0  0  0
    5.8290   46.0690   54.6500 C   0  0  0  0  0  0  0  0  0  0  0  0
    4.7590   45.8290   53.7440 O   0  0  0  0  0  0  0  0  0  0  0  0
    5.9550   47.6510   52.9610 C   0  0  0  0  0  0  0  0  0  0  0  0
    4.3650   43.7120   50.8890 C   0  0  0  0  0  0  0  0  0  0  0  0
    5.6630   43.4640   50.4280 C   0  0  0  0  0  0  0  0  0  0  0  0
    5.9980   42.1560   50.0460 C   0  0  0  0  0  0  0  0  0  0  0  0
    5.0320   41.1340   50.0980 C   0  0  0  0  0  0  0  0  0  0  0  0
    3.7310   41.4140   50.5430 C   0  0  0  0  0  0  0  0  0  0  0  0
    3.4300   42.7130   50.9650 C   0  0  0  0  0  0  0  0  0  0  0  0
    2.6730   45.1420   54.6720 H   0  0  0  0  0  0  0  0  0  0  0  0
    0.5852   43.6486   54.4546 H   0  0  0  0  0  0  0  0  0  0  0  0
    1.2046   44.8321   53.2461 H   0  0  0  0  0  0  0  0  0  0  0  0
    2.5461   42.1693   53.2335 H   0  0  0  0  0  0  0  0  0  0  0  0
    0.7904   42.1964   52.7338 H   0  0  0  0  0  0  0  0  0  0  0  0
    1.2778   42.9449   50.7750 H   0  0  0  0  0  0  0  0  0  0  0  0
    1.7961   45.2848   50.6193 H   0  0  0  0  0  0  0  0  0  0  0  0
    2.0410   45.2583   52.3734 H   0  0  0  0  0  0  0  0  0  0  0  0
    5.1394   46.3709   50.4067 H   0  0  0  0  0  0  0  0  0  0  0  0
    3.7518   47.0623   51.3274 H   0  0  0  0  0  0  0  0  0  0  0  0
    6.8094   44.6268   52.8144 H   0  0  0  0  0  0  0  0  0  0  0  0
    7.4305   45.6191   51.6964 H   0  0  0  0  0  0  0  0  0  0  0  0
   11.2910   47.0620   54.4530 H   0  0  0  0  0  0  0  0  0  0  0  0
    6.1979   45.1363   55.1016 H   0  0  0  0  0  0  0  0  0  0  0  0
    5.5697   46.6963   55.5156 H   0  0  0  0  0  0  0  0  0  0  0  0
    5.3214   48.3055   53.5776 H   0  0  0  0  0  0  0  0  0  0  0  0
    6.2836   48.4535   52.2842 H   0  0  0  0  0  0  0  0  0  0  0  0
    6.4032   44.2754   50.3666 H   0  0  0  0  0  0  0  0  0  0  0  0
    7.0188   41.9288   49.7049 H   0  0  0  0  0  0  0  0  0  0  0  0
    5.2976   40.1123   49.7888 H   0  0  0  0  0  0  0  0  0  0  0  0
    2.9627   40.6270   50.5596 H   0  0  0  0  0  0  0  0  0  0  0  0
  1  2  1  0
  2  3  1  0
  3  4  1  0
  4  5  1  0
  5  6  1  0
  6  7  1  0
  8  7  1  6
  8  9  1  0
  9 10  1  0
 10 11  1  1
 11 12  1  0
 12 13  2  0
 13 14  1  0
 14 15  1  0
 10 16  1  0
 16 17  1  0
 10 18  1  0
  6 19  1  0
 19 20  2  0
 20 21  1  0
 21 22  2  0
 22 23  1  0
 23 24  2  0
 24  4  1  0
 17  8  1  0
 24 19  1  0
 18  8  1  0
 15 11  2  0
  1 25  1  0
  2 26  1  0
  2 27  1  0
  3 28  1  0
  3 29  1  0
  4 30  1  6
  5 31  1  0
  5 32  1  0
  7 33  1  0
  7 34  1  0
  9 35  1  0
  9 36  1  0
 14 37  1  0
 16 38  1  0
 16 39  1  0
 18 40  1  0
 18 41  1  0
 20 42  1  0
 21 43  1  0
 22 44  1  0
 23 45  1  0
M  END
>  <meeko>  (5) 
{"is_sidechain": [false], "free_energy": -8.387, "intermolecular_energy": -11.014, "internal_energy": -0.34}

$$$$
