ligand_52_conformer_2_docked
     RDKit          3D

 43 46  0  0  0  0  0  0  0  0999 V2000
   -3.1050   45.3070   54.9210 C   0  0  0  0  0  0  0  0  0  0  0  0
   -1.9180   44.5470   55.5360 C   0  0  0  0  0  0  0  0  0  0  0  0
   -1.1360   43.6640   54.5390 C   0  0  0  0  0  0  0  0  0  0  0  0
   -0.2870   44.4730   53.6660 N   0  0  0  0  0  0  0  0  0  0  0  0
    0.9840   44.8450   53.8950 C   0  0  0  0  0  0  0  0  0  0  0  0
    1.3510   45.6250   52.8180 C   0  0  0  0  0  0  0  0  0  0  0  0
    2.6490   46.2770   52.5790 C   0  0  0  0  0  0  0  0  0  0  0  0
    2.7720   47.5070   52.8300 O   0  0  0  0  0  0  0  0  0  0  0  0
    3.7680   45.5370   52.0700 N   0  0  0  0  0  0  0  0  0  0  0  0
    5.0610   46.1760   51.8420 C   0  0  2  0  0  0  0  0  0  0  0  0
    5.8870   45.4760   50.7680 C   0  0  0  0  0  0  0  0  0  0  0  0
    6.2520   45.3110   52.2400 C   0  0  1  0  0  0  0  0  0  0  0  0
    7.5030   46.0280   52.7160 C   0  0  0  0  0  0  0  0  0  0  0  0
    7.5630   46.7930   53.9020 C   0  0  0  0  0  0  0  0  0  0  0  0
    8.7530   47.4240   54.2770 C   0  0  0  0  0  0  0  0  0  0  0  0
    9.8930   47.3050   53.4810 C   0  0  0  0  0  0  0  0  0  0  0  0
    9.8470   46.5540   52.3050 C   0  0  0  0  0  0  0  0  0  0  0  0
   10.9550   46.4390   51.5320 F   0  0  0  0  0  0  0  0  0  0  0  0
    8.6600   45.9200   51.9240 C   0  0  0  0  0  0  0  0  0  0  0  0
    0.3010   45.7030   51.9750 N   0  0  0  0  0  0  0  0  0  0  0  0
   -0.6800   44.9960   52.5170 N   0  0  0  0  0  0  0  0  0  0  0  0
   -2.2670   43.8300   56.8290 C   0  0  0  0  0  0  0  0  0  0  0  0
   -1.4410   44.6720   57.5990 O   0  0  0  0  0  0  0  0  0  0  0  0
   -1.0520   45.3920   56.4530 C   0  0  0  0  0  0  0  0  0  0  0  0
   -3.7373   45.7119   55.7249 H   0  0  0  0  0  0  0  0  0  0  0  0
   -2.7291   46.1328   54.2991 H   0  0  0  0  0  0  0  0  0  0  0  0
   -3.6977   44.6200   54.2991 H   0  0  0  0  0  0  0  0  0  0  0  0
   -0.5044   42.9610   55.1019 H   0  0  0  0  0  0  0  0  0  0  0  0
   -1.8601   43.1214   53.9136 H   0  0  0  0  0  0  0  0  0  0  0  0
    1.6049   44.5813   54.7639 H   0  0  0  0  0  0  0  0  0  0  0  0
    3.7020   44.5020   51.9530 H   0  0  0  0  0  0  0  0  0  0  0  0
    4.7516   47.2119   52.0451 H   0  0  0  0  0  0  0  0  0  0  0  0
    5.4594   44.6305   50.2092 H   0  0  0  0  0  0  0  0  0  0  0  0
    6.4245   45.8010   49.8649 H   0  0  0  0  0  0  0  0  0  0  0  0
    6.3981   44.4576   52.9185 H   0  0  0  0  0  0  0  0  0  0  0  0
    6.6683   46.8929   54.5342 H   0  0  0  0  0  0  0  0  0  0  0  0
    8.7908   48.0165   55.2030 H   0  0  0  0  0  0  0  0  0  0  0  0
   10.8273   47.8026   53.7800 H   0  0  0  0  0  0  0  0  0  0  0  0
    8.6312   45.3309   50.9955 H   0  0  0  0  0  0  0  0  0  0  0  0
   -3.3322   43.8993   57.0946 H   0  0  0  0  0  0  0  0  0  0  0  0
   -2.1207   42.7415   56.8896 H   0  0  0  0  0  0  0  0  0  0  0  0
   -1.3471   46.4513   56.4804 H   0  0  0  0  0  0  0  0  0  0  0  0
    0.0199   45.4928   56.2274 H   0  0  0  0  0  0  0  0  0  0  0  0
  1  2  1  0
  2  3  1  0
  3  4  1  0
  4  5  1  0
  5  6  2  0
  6  7  1  0
  7  8  2  0
  7  9  1  0
  9 10  1  0
 10 11  1  0
 11 12  1  0
 12 13  1  0
 13 14  2  0
 14 15  1  0
 15 16  2  0
 16 17  1  0
 17 18  1  0
 17 19  2  0
  6 20  1  0
 20 21  2  0
  2 22  1  0
 22 23  1  0
 23 24  1  0
 24  2  1  0
 21  4  1  0
 12 10  1  0
 19 13  1  0
  1 25  1  0
  1 26  1  0
  1 27  1  0
  3 28  1  0
  3 29  1  0
  5 30  1  0
  9 31  1  0
 10 32  1  6
 11 33  1  0
 11 34  1  0
 12 35  1  1
 14 36  1  0
 15 37  1  0
 16 38  1  0
 19 39  1  0
 22 40  1  0
 22 41  1  0
 24 42  1  0
 24 43  1  0
M  END
>  <meeko>  (1) 
{"is_sidechain": [false], "free_energy": -8.319, "intermolecular_energy": -10.75, "internal_energy": -0.287}

$$$$
ligand_52_conformer_2_docked
     RDKit          3D

 43 46  0  0  0  0  0  0  0  0999 V2000
   -3.2110   43.2630   52.1580 C   0  0  0  0  0  0  0  0  0  0  0  0
   -2.1760   44.1680   51.4680 C   0  0  0  0  0  0  0  0  0  0  0  0
   -1.0620   43.4090   50.7120 C   0  0  0  0  0  0  0  0  0  0  0  0
    0.1340   43.2610   51.5390 N   0  0  0  0  0  0  0  0  0  0  0  0
    1.3360   43.8240   51.3300 C   0  0  0  0  0  0  0  0  0  0  0  0
    2.1530   43.3650   52.3430 C   0  0  0  0  0  0  0  0  0  0  0  0
    3.5700   43.6880   52.5730 C   0  0  0  0  0  0  0  0  0  0  0  0
    4.4070   43.4540   51.6600 O   0  0  0  0  0  0  0  0  0  0  0  0
    4.0070   44.2630   53.8130 N   0  0  0  0  0  0  0  0  0  0  0  0
    5.4110   44.5970   54.0420 C   0  0  2  0  0  0  0  0  0  0  0  0
    5.6050   45.5910   55.1830 C   0  0  0  0  0  0  0  0  0  0  0  0
    5.7540   46.0500   53.7350 C   0  0  1  0  0  0  0  0  0  0  0  0
    7.1650   46.3440   53.2570 C   0  0  0  0  0  0  0  0  0  0  0  0
    7.5980   46.1420   51.9270 C   0  0  0  0  0  0  0  0  0  0  0  0
    8.9140   46.4380   51.5590 C   0  0  0  0  0  0  0  0  0  0  0  0
    9.8130   46.9350   52.5040 C   0  0  0  0  0  0  0  0  0  0  0  0
    9.3990   47.1380   53.8220 C   0  0  0  0  0  0  0  0  0  0  0  0
   10.2720   47.6210   54.7390 F   0  0  0  0  0  0  0  0  0  0  0  0
    8.0840   46.8440   54.1960 C   0  0  0  0  0  0  0  0  0  0  0  0
    1.4280   42.5440   53.1300 N   0  0  0  0  0  0  0  0  0  0  0  0
    0.2070   42.4970   52.6170 N   0  0  0  0  0  0  0  0  0  0  0  0
   -1.6480   45.2720   52.3680 C   0  0  0  0  0  0  0  0  0  0  0  0
   -2.2570   46.2830   51.6000 O   0  0  0  0  0  0  0  0  0  0  0  0
   -2.7840   45.3320   50.7060 C   0  0  0  0  0  0  0  0  0  0  0  0
   -3.1075   43.3535   53.2494 H   0  0  0  0  0  0  0  0  0  0  0  0
   -4.2240   43.5703   51.8590 H   0  0  0  0  0  0  0  0  0  0  0  0
   -3.0416   42.2181   51.8590 H   0  0  0  0  0  0  0  0  0  0  0  0
   -1.4324   42.4108   50.4355 H   0  0  0  0  0  0  0  0  0  0  0  0
   -0.7949   43.9868   49.8149 H   0  0  0  0  0  0  0  0  0  0  0  0
    1.6126   44.5111   50.5167 H   0  0  0  0  0  0  0  0  0  0  0  0
    3.3080   44.5490   54.5330 H   0  0  0  0  0  0  0  0  0  0  0  0
    5.8417   43.6231   53.7662 H   0  0  0  0  0  0  0  0  0  0  0  0
    4.7409   45.9206   55.7785 H   0  0  0  0  0  0  0  0  0  0  0  0
    6.2388   45.6308   56.0812 H   0  0  0  0  0  0  0  0  0  0  0  0
    5.3032   46.8382   53.1141 H   0  0  0  0  0  0  0  0  0  0  0  0
    6.8956   45.7496   51.1769 H   0  0  0  0  0  0  0  0  0  0  0  0
    9.2420   46.2787   50.5212 H   0  0  0  0  0  0  0  0  0  0  0  0
   10.8475   47.1667   52.2105 H   0  0  0  0  0  0  0  0  0  0  0  0
    7.7652   47.0057   55.2363 H   0  0  0  0  0  0  0  0  0  0  0  0
   -2.0278   45.2161   53.3988 H   0  0  0  0  0  0  0  0  0  0  0  0
   -0.5666   45.3293   52.5609 H   0  0  0  0  0  0  0  0  0  0  0  0
   -3.8836   45.3142   50.6837 H   0  0  0  0  0  0  0  0  0  0  0  0
   -2.5679   45.4351   49.6324 H   0  0  0  0  0  0  0  0  0  0  0  0
  1  2  1  0
  2  3  1  0
  3  4  1  0
  4  5  1  0
  5  6  2  0
  6  7  1  0
  7  8  2  0
  7  9  1  0
  9 10  1  0
 10 11  1  0
 11 12  1  0
 12 13  1  0
 13 14  2  0
 14 15  1  0
 15 16  2  0
 16 17  1  0
 17 18  1  0
 17 19  2  0
  6 20  1  0
 20 21  2  0
  2 22  1  0
 22 23  1  0
 23 24  1  0
 24  2  1  0
 21  4  1  0
 12 10  1  0
 19 13  1  0
  1 25  1  0
  1 26  1  0
  1 27  1  0
  3 28  1  0
  3 29  1  0
  5 30  1  0
  9 31  1  0
 10 32  1  1
 11 33  1  0
 11 34  1  0
 12 35  1  6
 14 36  1  0
 15 37  1  0
 16 38  1  0
 19 39  1  0
 22 40  1  0
 22 41  1  0
 24 42  1  0
 24 43  1  0
M  END
>  <meeko>  (2) 
{"is_sidechain": [false], "free_energy": -8.187, "intermolecular_energy": -10.449, "internal_energy": -0.419}

$$$$
ligand_52_conformer_2_docked
     RDKit          3D

 43 46  0  0  0  0  0  0  0  0999 V2000
   -3.2770   43.6270   56.4250 C   0  0  0  0  0  0  0  0  0  0  0  0
   -2.2950   44.7650   56.0990 C   0  0  0  0  0  0  0  0  0  0  0  0
   -2.0130   44.9570   54.5920 C   0  0  0  0  0  0  0  0  0  0  0  0
   -0.8240   44.2160   54.1770 N   0  0  0  0  0  0  0  0  0  0  0  0
    0.4320   44.6850   54.0890 C   0  0  0  0  0  0  0  0  0  0  0  0
    1.1980   43.6380   53.6190 C   0  0  0  0  0  0  0  0  0  0  0  0
    2.6450   43.6300   53.3530 C   0  0  0  0  0  0  0  0  0  0  0  0
    3.1130   42.7870   52.5400 O   0  0  0  0  0  0  0  0  0  0  0  0
    3.5240   44.5620   53.9990 N   0  0  0  0  0  0  0  0  0  0  0  0
    4.9590   44.5660   53.7290 C   0  0  2  0  0  0  0  0  0  0  0  0
    5.8010   44.5690   55.0010 C   0  0  0  0  0  0  0  0  0  0  0  0
    5.6640   45.8430   54.1730 C   0  0  1  0  0  0  0  0  0  0  0  0
    6.8850   46.2730   53.3790 C   0  0  0  0  0  0  0  0  0  0  0  0
    6.9570   46.2290   51.9690 C   0  0  0  0  0  0  0  0  0  0  0  0
    8.1160   46.6450   51.3070 C   0  0  0  0  0  0  0  0  0  0  0  0
    9.2140   47.1070   52.0340 C   0  0  0  0  0  0  0  0  0  0  0  0
    9.1570   47.1550   53.4280 C   0  0  0  0  0  0  0  0  0  0  0  0
   10.2230   47.6030   54.1340 F   0  0  0  0  0  0  0  0  0  0  0  0
    8.0000   46.7400   54.0970 C   0  0  0  0  0  0  0  0  0  0  0  0
    0.3910   42.5730   53.4370 N   0  0  0  0  0  0  0  0  0  0  0  0
   -0.8310   42.9530   53.7800 N   0  0  0  0  0  0  0  0  0  0  0  0
   -1.0360   44.7360   56.9470 C   0  0  0  0  0  0  0  0  0  0  0  0
   -1.3730   45.9310   57.6110 O   0  0  0  0  0  0  0  0  0  0  0  0
   -2.5610   46.0490   56.8650 C   0  0  0  0  0  0  0  0  0  0  0  0
   -3.3675   43.5221   57.5162 H   0  0  0  0  0  0  0  0  0  0  0  0
   -4.2629   43.8593   55.9960 H   0  0  0  0  0  0  0  0  0  0  0  0
   -2.9029   42.6857   55.9960 H   0  0  0  0  0  0  0  0  0  0  0  0
   -2.8787   44.5972   54.0165 H   0  0  0  0  0  0  0  0  0  0  0  0
   -1.8391   46.0268   54.4043 H   0  0  0  0  0  0  0  0  0  0  0  0
    0.7792   45.6980   54.3406 H   0  0  0  0  0  0  0  0  0  0  0  0
    3.1320   45.3240   54.5960 H   0  0  0  0  0  0  0  0  0  0  0  0
    4.9366   43.9740   52.8022 H   0  0  0  0  0  0  0  0  0  0  0  0
    5.3128   44.4967   55.9841 H   0  0  0  0  0  0  0  0  0  0  0  0
    6.6453   43.9722   55.3766 H   0  0  0  0  0  0  0  0  0  0  0  0
    5.3433   46.8757   54.3746 H   0  0  0  0  0  0  0  0  0  0  0  0
    6.0963   45.8654   51.3885 H   0  0  0  0  0  0  0  0  0  0  0  0
    8.1626   46.6080   50.2086 H   0  0  0  0  0  0  0  0  0  0  0  0
   10.1239   47.4332   51.5089 H   0  0  0  0  0  0  0  0  0  0  0  0
    7.9625   46.7796   55.1956 H   0  0  0  0  0  0  0  0  0  0  0  0
   -0.9784   43.8646   57.6158 H   0  0  0  0  0  0  0  0  0  0  0  0
   -0.0593   44.6633   56.4462 H   0  0  0  0  0  0  0  0  0  0  0  0
   -3.4711   46.0106   57.4817 H   0  0  0  0  0  0  0  0  0  0  0  0
   -2.7452   46.9757   56.3017 H   0  0  0  0  0  0  0  0  0  0  0  0
  1  2  1  0
  2  3  1  0
  3  4  1  0
  4  5  1  0
  5  6  2  0
  6  7  1  0
  7  8  2  0
  7  9  1  0
  9 10  1  0
 10 11  1  0
 11 12  1  0
 12 13  1  0
 13 14  2  0
 14 15  1  0
 15 16  2  0
 16 17  1  0
 17 18  1  0
 17 19  2  0
  6 20  1  0
 20 21  2  0
  2 22  1  0
 22 23  1  0
 23 24  1  0
 24  2  1  0
 21  4  1  0
 12 10  1  0
 19 13  1  0
  1 25  1  0
  1 26  1  0
  1 27  1  0
  3 28  1  0
  3 29  1  0
  5 30  1  0
  9 31  1  0
 10 32  1  6
 11 33  1  0
 11 34  1  0
 12 35  1  1
 14 36  1  0
 15 37  1  0
 16 38  1  0
 19 39  1  0
 22 40  1  0
 22 41  1  0
 24 42  1  0
 24 43  1  0
M  END
>  <meeko>  (3) 
{"is_sidechain": [false], "free_energy": -8.03, "intermolecular_energy": -10.34, "internal_energy": -0.324}

$$$$
ligand_52_conformer_2_docked
     RDKit          3D

 43 46  0  0  0  0  0  0  0  0999 V2000
    4.7740   41.5780   44.9690 C   0  0  0  0  0  0  0  0  0  0  0  0
    3.5760   40.7030   45.3760 C   0  0  0  0  0  0  0  0  0  0  0  0
    3.8700   39.7010   46.5140 C   0  0  0  0  0  0  0  0  0  0  0  0
    3.9930   40.3820   47.8010 N   0  0  0  0  0  0  0  0  0  0  0  0
    4.9760   41.2160   48.1840 C   0  0  0  0  0  0  0  0  0  0  0  0
    4.6850   41.5750   49.4840 C   0  0  0  0  0  0  0  0  0  0  0  0
    5.4480   42.4780   50.3610 C   0  0  0  0  0  0  0  0  0  0  0  0
    6.6960   42.3270   50.4580 O   0  0  0  0  0  0  0  0  0  0  0  0
    4.7960   43.5210   51.1000 N   0  0  0  0  0  0  0  0  0  0  0  0
    5.5500   44.4270   51.9620 C   0  0  2  0  0  0  0  0  0  0  0  0
    4.9940   45.8480   51.9590 C   0  0  0  0  0  0  0  0  0  0  0  0
    6.2800   45.5300   51.2030 C   0  0  1  0  0  0  0  0  0  0  0  0
    7.5720   46.0510   51.8090 C   0  0  0  0  0  0  0  0  0  0  0  0
    8.8390   45.8920   51.2050 C   0  0  0  0  0  0  0  0  0  0  0  0
    9.9850   46.4020   51.8230 C   0  0  0  0  0  0  0  0  0  0  0  0
    9.8880   47.0710   53.0430 C   0  0  0  0  0  0  0  0  0  0  0  0
    8.6410   47.2340   53.6520 C   0  0  0  0  0  0  0  0  0  0  0  0
    8.5470   47.8840   54.8370 F   0  0  0  0  0  0  0  0  0  0  0  0
    7.4910   46.7270   53.0400 C   0  0  0  0  0  0  0  0  0  0  0  0
    3.5450   40.9540   49.8490 N   0  0  0  0  0  0  0  0  0  0  0  0
    3.1490   40.2340   48.8090 N   0  0  0  0  0  0  0  0  0  0  0  0
    2.8600   40.0750   44.1920 C   0  0  0  0  0  0  0  0  0  0  0  0
    1.6960   40.8390   44.4040 O   0  0  0  0  0  0  0  0  0  0  0  0
    2.2740   41.4690   45.5230 C   0  0  0  0  0  0  0  0  0  0  0  0
    5.2811   41.9484   45.8721 H   0  0  0  0  0  0  0  0  0  0  0  0
    5.4785   40.9804   44.3719 H   0  0  0  0  0  0  0  0  0  0  0  0
    4.4190   42.4309   44.3719 H   0  0  0  0  0  0  0  0  0  0  0  0
    3.0481   38.9721   46.5712 H   0  0  0  0  0  0  0  0  0  0  0  0
    4.8226   39.1962   46.2953 H   0  0  0  0  0  0  0  0  0  0  0  0
    5.8367   41.5449   47.5832 H   0  0  0  0  0  0  0  0  0  0  0  0
    3.7810   43.7140   50.9490 H   0  0  0  0  0  0  0  0  0  0  0  0
    5.8343   43.6956   52.7329 H   0  0  0  0  0  0  0  0  0  0  0  0
    4.0721   46.0768   51.4043 H   0  0  0  0  0  0  0  0  0  0  0  0
    4.7067   46.5726   52.7351 H   0  0  0  0  0  0  0  0  0  0  0  0
    6.6304   45.6577   50.1681 H   0  0  0  0  0  0  0  0  0  0  0  0
    8.9246   45.3643   50.2436 H   0  0  0  0  0  0  0  0  0  0  0  0
   10.9675   46.2750   51.3448 H   0  0  0  0  0  0  0  0  0  0  0  0
   10.7925   47.4700   53.5254 H   0  0  0  0  0  0  0  0  0  0  0  0
    6.5129   46.8580   53.5259 H   0  0  0  0  0  0  0  0  0  0  0  0
    3.3476   40.2780   43.2271 H   0  0  0  0  0  0  0  0  0  0  0  0
    2.7754   38.9794   44.1415 H   0  0  0  0  0  0  0  0  0  0  0  0
    2.3896   42.5562   45.4022 H   0  0  0  0  0  0  0  0  0  0  0  0
    1.7428   41.4341   46.4856 H   0  0  0  0  0  0  0  0  0  0  0  0
  1  2  1  0
  2  3  1  0
  3  4  1  0
  4  5  1  0
  5  6  2  0
  6  7  1  0
  7  8  2  0
  7  9  1  0
  9 10  1  0
 10 11  1  0
 11 12  1  0
 12 13  1  0
 13 14  2  0
 14 15  1  0
 15 16  2  0
 16 17  1  0
 17 18  1  0
 17 19  2  0
  6 20  1  0
 20 21  2  0
  2 22  1  0
 22 23  1  0
 23 24  1  0
 24  2  1  0
 21  4  1  0
 12 10  1  0
 19 13  1  0
  1 25  1  0
  1 26  1  0
  1 27  1  0
  3 28  1  0
  3 29  1  0
  5 30  1  0
  9 31  1  0
 10 32  1  1
 11 33  1  0
 11 34  1  0
 12 35  1  6
 14 36  1  0
 15 37  1  0
 16 38  1  0
 19 39  1  0
 22 40  1  0
 22 41  1  0
 24 42  1  0
 24 43  1  0
M  END
>  <meeko>  (4) 
{"is_sidechain": [false], "free_energy": -7.852, "intermolecular_energy": -10.157, "internal_energy": -0.277}

$$$$
ligand_52_conformer_2_docked
     RDKit          3D

 43 46  0  0  0  0  0  0  0  0999 V2000
   -0.4490   42.2890   52.7750 C   0  0  0  0  0  0  0  0  0  0  0  0
   -1.4110   43.4880   52.7320 C   0  0  0  0  0  0  0  0  0  0  0  0
   -1.3770   44.3840   53.9900 C   0  0  0  0  0  0  0  0  0  0  0  0
   -0.0080   44.7640   54.3340 N   0  0  0  0  0  0  0  0  0  0  0  0
    0.9020   45.3280   53.5210 C   0  0  0  0  0  0  0  0  0  0  0  0
    2.0510   45.4650   54.2740 C   0  0  0  0  0  0  0  0  0  0  0  0
    3.3410   46.0340   53.8520 C   0  0  0  0  0  0  0  0  0  0  0  0
    4.0590   46.6210   54.7070 O   0  0  0  0  0  0  0  0  0  0  0  0
    3.7890   45.9290   52.4930 N   0  0  0  0  0  0  0  0  0  0  0  0
    5.0740   46.4820   52.0730 C   0  0  2  0  0  0  0  0  0  0  0  0
    5.6490   45.7780   50.8470 C   0  0  0  0  0  0  0  0  0  0  0  0
    6.2400   45.5120   52.2290 C   0  0  1  0  0  0  0  0  0  0  0  0
    7.6070   46.1100   52.5110 C   0  0  0  0  0  0  0  0  0  0  0  0
    8.7150   45.9730   51.6450 C   0  0  0  0  0  0  0  0  0  0  0  0
    9.9440   46.5550   51.9720 C   0  0  0  0  0  0  0  0  0  0  0  0
   10.0870   47.2750   53.1580 C   0  0  0  0  0  0  0  0  0  0  0  0
    9.0010   47.4180   54.0230 C   0  0  0  0  0  0  0  0  0  0  0  0
    9.1400   48.1190   55.1750 F   0  0  0  0  0  0  0  0  0  0  0  0
    7.7690   46.8390   53.7030 C   0  0  0  0  0  0  0  0  0  0  0  0
    1.8060   44.9840   55.5100 N   0  0  0  0  0  0  0  0  0  0  0  0
    0.5490   44.5630   55.5170 N   0  0  0  0  0  0  0  0  0  0  0  0
   -2.8170   43.1150   52.2970 C   0  0  0  0  0  0  0  0  0  0  0  0
   -2.7090   43.8370   51.0920 O   0  0  0  0  0  0  0  0  0  0  0  0
   -1.4000   44.2410   51.4140 C   0  0  0  0  0  0  0  0  0  0  0  0
   -0.2378   42.0257   53.8219 H   0  0  0  0  0  0  0  0  0  0  0  0
   -0.9111   41.4297   52.2669 H   0  0  0  0  0  0  0  0  0  0  0  0
    0.4900   42.5539   52.2669 H   0  0  0  0  0  0  0  0  0  0  0  0
   -1.9640   45.2942   53.7977 H   0  0  0  0  0  0  0  0  0  0  0  0
   -1.8022   43.8175   54.8316 H   0  0  0  0  0  0  0  0  0  0  0  0
    0.7601   45.6206   52.4702 H   0  0  0  0  0  0  0  0  0  0  0  0
    3.2470   45.3610   51.8050 H   0  0  0  0  0  0  0  0  0  0  0  0
    4.8889   47.5261   52.3655 H   0  0  0  0  0  0  0  0  0  0  0  0
    5.0665   44.9960   50.3379 H   0  0  0  0  0  0  0  0  0  0  0  0
    6.0527   46.1076   49.8783 H   0  0  0  0  0  0  0  0  0  0  0  0
    6.4271   44.6167   52.8401 H   0  0  0  0  0  0  0  0  0  0  0  0
    8.6104   45.4055   50.7085 H   0  0  0  0  0  0  0  0  0  0  0  0
   10.8010   46.4445   51.2913 H   0  0  0  0  0  0  0  0  0  0  0  0
   11.0558   47.7302   53.4116 H   0  0  0  0  0  0  0  0  0  0  0  0
    6.9180   46.9548   54.3903 H   0  0  0  0  0  0  0  0  0  0  0  0
   -2.9576   42.0341   52.1490 H   0  0  0  0  0  0  0  0  0  0  0  0
   -3.6577   43.3307   52.9728 H   0  0  0  0  0  0  0  0  0  0  0  0
   -0.6420   43.8740   50.7064 H   0  0  0  0  0  0  0  0  0  0  0  0
   -1.1613   45.3148   51.4177 H   0  0  0  0  0  0  0  0  0  0  0  0
  1  2  1  0
  2  3  1  0
  3  4  1  0
  4  5  1  0
  5  6  2  0
  6  7  1  0
  7  8  2  0
  7  9  1  0
  9 10  1  0
 10 11  1  0
 11 12  1  0
 12 13  1  0
 13 14  2  0
 14 15  1  0
 15 16  2  0
 16 17  1  0
 17 18  1  0
 17 19  2  0
  6 20  1  0
 20 21  2  0
  2 22  1  0
 22 23  1  0
 23 24  1  0
 24  2  1  0
 21  4  1  0
 12 10  1  0
 19 13  1  0
  1 25  1  0
  1 26  1  0
  1 27  1  0
  3 28  1  0
  3 29  1  0
  5 30  1  0
  9 31  1  0
 10 32  1  6
 11 33  1  0
 11 34  1  0
 12 35  1  1
 14 36  1  0
 15 37  1  0
 16 38  1  0
 19 39  1  0
 22 40  1  0
 22 41  1  0
 24 42  1  0
 24 43  1  0
M  END
>  <meeko>  (5) 
{"is_sidechain": [false], "free_energy": -7.814, "intermolecular_energy": -10.048, "internal_energy": -0.337}

$$$$
