ligand_28_conformer_5_docked
     RDKit          3D

 55 60  0  0  0  0  0  0  0  0999 V2000
    9.9680   47.1420   54.2350 C   0  0  0  0  0  0  0  0  0  0  0  0
    9.7250   46.5140   52.9010 C   0  0  0  0  0  0  0  0  0  0  0  0
   10.6700   46.2780   51.9050 C   0  0  0  0  0  0  0  0  0  0  0  0
   10.0780   45.7510   50.8070 N   0  0  0  0  0  0  0  0  0  0  0  0
    8.7710   45.6680   51.1090 C   0  0  0  0  0  0  0  0  0  0  0  0
    7.7900   45.2260   50.2870 N   0  0  0  0  0  0  0  0  0  0  0  0
    6.4980   45.2310   50.7290 C   0  0  0  0  0  0  0  0  0  0  0  0
    6.1710   45.6970   52.0340 C   0  0  0  0  0  0  0  0  0  0  0  0
    4.7570   45.7070   52.4820 C   0  0  0  0  0  0  0  0  0  0  0  0
    4.1950   46.8130   52.7190 O   0  0  0  0  0  0  0  0  0  0  0  0
    4.0090   44.4920   52.6380 N   0  0  0  0  0  0  0  0  0  0  0  0
    2.6570   44.5160   53.1930 C   0  0  1  0  0  0  0  0  0  0  0  0
    1.5750   44.5020   52.1220 C   0  0  2  0  0  0  0  0  0  0  0  0
    0.2070   45.0140   52.5490 C   0  0  0  0  0  0  0  0  0  0  0  0
   -0.2510   44.1200   53.5990 N   0  0  0  0  0  0  0  0  0  0  0  0
   -1.5720   44.1950   54.1560 C   0  0  0  0  0  0  0  0  0  0  0  0
   -2.4740   43.4330   53.7130 O   0  0  0  0  0  0  0  0  0  0  0  0
   -1.8940   45.1450   55.2410 C   0  0  0  0  0  0  0  0  0  0  0  0
   -3.2020   45.6850   55.3480 C   0  0  0  0  0  0  0  0  0  0  0  0
   -3.5180   46.6100   56.3590 C   0  0  0  0  0  0  0  0  0  0  0  0
   -2.5080   46.9790   57.2420 C   0  0  0  0  0  0  0  0  0  0  0  0
   -2.5870   47.8710   58.2460 N   0  0  0  0  0  0  0  0  0  0  0  0
   -1.3220   47.8720   58.7440 C   0  0  0  0  0  0  0  0  0  0  0  0
   -0.9250   48.7290   59.8170 N   0  0  0  0  0  0  0  0  0  0  0  0
   -0.4790   47.0200   58.1050 N   0  0  0  0  0  0  0  0  0  0  0  0
    0.9520   46.8340   58.3380 C   0  0  0  0  0  0  0  0  0  0  0  0
   -1.2430   46.4720   57.1430 C   0  0  0  0  0  0  0  0  0  0  0  0
   -0.8910   45.5600   56.1460 C   0  0  0  0  0  0  0  0  0  0  0  0
    0.6660   43.0180   53.8520 C   0  0  0  0  0  0  0  0  0  0  0  0
    1.8600   43.2430   52.9350 C   0  0  2  0  0  0  0  0  0  0  0  0
    7.2150   46.1710   52.8670 C   0  0  0  0  0  0  0  0  0  0  0  0
    8.5130   46.1280   52.3660 C   0  0  0  0  0  0  0  0  0  0  0  0
    9.6935   46.4327   55.0297 H   0  0  0  0  0  0  0  0  0  0  0  0
   11.0323   47.4037   54.3287 H   0  0  0  0  0  0  0  0  0  0  0  0
    9.3571   48.0519   54.3287 H   0  0  0  0  0  0  0  0  0  0  0  0
   11.7454   46.4899   51.9974 H   0  0  0  0  0  0  0  0  0  0  0  0
   10.5400   45.4800   49.9100 H   0  0  0  0  0  0  0  0  0  0  0  0
    5.6976   44.8695   50.0667 H   0  0  0  0  0  0  0  0  0  0  0  0
    4.4010   43.5890   52.2920 H   0  0  0  0  0  0  0  0  0  0  0  0
    2.8760   45.1267   54.0813 H   0  0  0  0  0  0  0  0  0  0  0  0
    1.5760   44.8336   51.0732 H   0  0  0  0  0  0  0  0  0  0  0  0
    0.2871   46.0422   52.9317 H   0  0  0  0  0  0  0  0  0  0  0  0
   -0.4960   45.0322   51.7032 H   0  0  0  0  0  0  0  0  0  0  0  0
   -3.9777   45.3764   54.6318 H   0  0  0  0  0  0  0  0  0  0  0  0
   -4.5313   47.0285   56.4489 H   0  0  0  0  0  0  0  0  0  0  0  0
    0.0620   49.0500   59.9220 H   0  0  0  0  0  0  0  0  0  0  0  0
   -1.6400   49.0850   60.4870 H   0  0  0  0  0  0  0  0  0  0  0  0
    1.1470   46.8087   59.4203 H   0  0  0  0  0  0  0  0  0  0  0  0
    1.2772   45.8860   57.8845 H   0  0  0  0  0  0  0  0  0  0  0  0
    1.5087   47.6673   57.8845 H   0  0  0  0  0  0  0  0  0  0  0  0
    0.1367   45.1759   56.0673 H   0  0  0  0  0  0  0  0  0  0  0  0
    0.9867   43.0222   54.9042 H   0  0  0  0  0  0  0  0  0  0  0  0
    0.1888   42.0459   53.6590 H   0  0  0  0  0  0  0  0  0  0  0  0
    2.1690   42.2002   52.7704 H   0  0  0  0  0  0  0  0  0  0  0  0
    7.0068   46.5595   53.8748 H   0  0  0  0  0  0  0  0  0  0  0  0
  1  2  1  0
  2  3  2  0
  3  4  1  0
  4  5  1  0
  5  6  2  0
  6  7  1  0
  7  8  2  0
  8  9  1  0
  9 10  2  0
  9 11  1  0
 11 12  1  0
 12 13  1  0
 13 14  1  0
 14 15  1  0
 15 16  1  0
 16 17  2  0
 16 18  1  0
 18 19  2  0
 19 20  1  0
 20 21  2  0
 21 22  1  0
 22 23  2  0
 23 24  1  0
 23 25  1  0
 25 26  1  0
 25 27  1  0
 27 28  2  0
 15 29  1  0
 29 30  1  0
  8 31  1  0
 31 32  2  0
 32  2  1  0
 32  5  1  0
 30 12  1  0
 30 13  1  0
 28 18  1  0
 27 21  1  0
  1 33  1  0
  1 34  1  0
  1 35  1  0
  3 36  1  0
  4 37  1  0
  7 38  1  0
 11 39  1  0
 12 40  1  1
 13 41  1  6
 14 42  1  0
 14 43  1  0
 19 44  1  0
 20 45  1  0
 24 46  1  0
 24 47  1  0
 26 48  1  0
 26 49  1  0
 26 50  1  0
 28 51  1  0
 29 52  1  0
 29 53  1  0
 30 54  1  6
 31 55  1  0
M  END
>  <meeko>  (1) 
{"is_sidechain": [false], "free_energy": -9.347, "intermolecular_energy": -11.807, "internal_energy": -0.777}

$$$$
ligand_28_conformer_5_docked
     RDKit          3D

 55 60  0  0  0  0  0  0  0  0999 V2000
   10.0770   45.8550   51.4030 C   0  0  0  0  0  0  0  0  0  0  0  0
    9.5300   46.5000   52.6350 C   0  0  0  0  0  0  0  0  0  0  0  0
   10.2610   47.1100   53.6530 C   0  0  0  0  0  0  0  0  0  0  0  0
    9.4360   47.5300   54.6400 N   0  0  0  0  0  0  0  0  0  0  0  0
    8.2000   47.1760   54.2510 C   0  0  0  0  0  0  0  0  0  0  0  0
    7.0580   47.3690   54.9530 N   0  0  0  0  0  0  0  0  0  0  0  0
    5.8750   46.9230   54.4360 C   0  0  0  0  0  0  0  0  0  0  0  0
    5.8300   46.2570   53.1780 C   0  0  0  0  0  0  0  0  0  0  0  0
    4.5340   45.7670   52.6480 C   0  0  0  0  0  0  0  0  0  0  0  0
    4.2440   45.9800   51.4380 O   0  0  0  0  0  0  0  0  0  0  0  0
    3.6080   45.0440   53.4750 N   0  0  0  0  0  0  0  0  0  0  0  0
    2.2890   44.6740   52.9670 C   0  0  1  0  0  0  0  0  0  0  0  0
    2.1540   43.1830   52.6930 C   0  0  2  0  0  0  0  0  0  0  0  0
    1.0480   42.7790   51.7290 C   0  0  0  0  0  0  0  0  0  0  0  0
   -0.2000   43.1910   52.3490 N   0  0  0  0  0  0  0  0  0  0  0  0
   -1.4840   42.8490   51.8040 C   0  0  0  0  0  0  0  0  0  0  0  0
   -2.1250   41.8800   52.2940 O   0  0  0  0  0  0  0  0  0  0  0  0
   -2.0680   43.6120   50.6820 C   0  0  0  0  0  0  0  0  0  0  0  0
   -2.6320   44.8940   50.9120 C   0  0  0  0  0  0  0  0  0  0  0  0
   -3.2150   45.6230   49.8600 C   0  0  0  0  0  0  0  0  0  0  0  0
   -3.2250   45.0440   48.5950 C   0  0  0  0  0  0  0  0  0  0  0  0
   -3.7640   45.5490   47.4700 N   0  0  0  0  0  0  0  0  0  0  0  0
   -3.5270   44.5670   46.5600 C   0  0  0  0  0  0  0  0  0  0  0  0
   -3.9800   44.6560   45.2070 N   0  0  0  0  0  0  0  0  0  0  0  0
   -2.8630   43.4960   47.0660 N   0  0  0  0  0  0  0  0  0  0  0  0
   -2.5210   42.2500   46.3820 C   0  0  0  0  0  0  0  0  0  0  0  0
   -2.6930   43.8070   48.3640 C   0  0  0  0  0  0  0  0  0  0  0  0
   -2.1150   43.0510   49.3860 C   0  0  0  0  0  0  0  0  0  0  0  0
   -0.0180   43.7670   53.6730 C   0  0  0  0  0  0  0  0  0  0  0  0
    1.4840   43.7960   53.9180 C   0  0  2  0  0  0  0  0  0  0  0  0
    7.0420   46.0520   52.4740 C   0  0  0  0  0  0  0  0  0  0  0  0
    8.2140   46.5410   53.0450 C   0  0  0  0  0  0  0  0  0  0  0  0
   10.7642   45.0446   51.6876 H   0  0  0  0  0  0  0  0  0  0  0  0
    9.2497   45.4419   50.8072 H   0  0  0  0  0  0  0  0  0  0  0  0
   10.6197   46.6037   50.8072 H   0  0  0  0  0  0  0  0  0  0  0  0
   11.3541   47.2327   53.6539 H   0  0  0  0  0  0  0  0  0  0  0  0
    9.7080   48.0140   55.5260 H   0  0  0  0  0  0  0  0  0  0  0  0
    4.9435   47.0805   54.9995 H   0  0  0  0  0  0  0  0  0  0  0  0
    3.8990   44.7180   54.4230 H   0  0  0  0  0  0  0  0  0  0  0  0
    2.0862   45.5979   52.4055 H   0  0  0  0  0  0  0  0  0  0  0  0
    2.8993   42.4110   52.4510 H   0  0  0  0  0  0  0  0  0  0  0  0
    1.1798   43.2875   50.7625 H   0  0  0  0  0  0  0  0  0  0  0  0
    1.0610   41.6964   51.5347 H   0  0  0  0  0  0  0  0  0  0  0  0
   -2.6129   45.3224   51.9250 H   0  0  0  0  0  0  0  0  0  0  0  0
   -3.6491   46.6190   50.0319 H   0  0  0  0  0  0  0  0  0  0  0  0
   -3.3140   44.6160   44.4050 H   0  0  0  0  0  0  0  0  0  0  0  0
   -5.0010   44.7160   45.0050 H   0  0  0  0  0  0  0  0  0  0  0  0
   -2.3068   41.4696   47.1270 H   0  0  0  0  0  0  0  0  0  0  0  0
   -3.3656   41.9337   45.7522 H   0  0  0  0  0  0  0  0  0  0  0  0
   -1.6333   42.4092   45.7522 H   0  0  0  0  0  0  0  0  0  0  0  0
   -1.7083   42.0483   49.1880 H   0  0  0  0  0  0  0  0  0  0  0  0
   -0.4299   44.7865   53.7057 H   0  0  0  0  0  0  0  0  0  0  0  0
   -0.5393   43.1785   54.4423 H   0  0  0  0  0  0  0  0  0  0  0  0
    1.4973   43.6892   55.0127 H   0  0  0  0  0  0  0  0  0  0  0  0
    7.0568   45.5244   51.5089 H   0  0  0  0  0  0  0  0  0  0  0  0
  1  2  1  0
  2  3  2  0
  3  4  1  0
  4  5  1  0
  5  6  2  0
  6  7  1  0
  7  8  2  0
  8  9  1  0
  9 10  2  0
  9 11  1  0
 11 12  1  0
 12 13  1  0
 13 14  1  0
 14 15  1  0
 15 16  1  0
 16 17  2  0
 16 18  1  0
 18 19  2  0
 19 20  1  0
 20 21  2  0
 21 22  1  0
 22 23  2  0
 23 24  1  0
 23 25  1  0
 25 26  1  0
 25 27  1  0
 27 28  2  0
 15 29  1  0
 29 30  1  0
  8 31  1  0
 31 32  2  0
 32  2  1  0
 32  5  1  0
 30 12  1  0
 30 13  1  0
 28 18  1  0
 27 21  1  0
  1 33  1  0
  1 34  1  0
  1 35  1  0
  3 36  1  0
  4 37  1  0
  7 38  1  0
 11 39  1  0
 12 40  1  6
 13 41  1  1
 14 42  1  0
 14 43  1  0
 19 44  1  0
 20 45  1  0
 24 46  1  0
 24 47  1  0
 26 48  1  0
 26 49  1  0
 26 50  1  0
 28 51  1  0
 29 52  1  0
 29 53  1  0
 30 54  1  1
 31 55  1  0
M  END
>  <meeko>  (2) 
{"is_sidechain": [false], "free_energy": -8.565, "intermolecular_energy": -10.912, "internal_energy": -0.683}

$$$$
ligand_28_conformer_5_docked
     RDKit          3D

 55 60  0  0  0  0  0  0  0  0999 V2000
    6.1550   41.9750   49.0400 C   0  0  0  0  0  0  0  0  0  0  0  0
    6.7800   43.2480   49.5090 C   0  0  0  0  0  0  0  0  0  0  0  0
    8.0930   43.6620   49.2930 C   0  0  0  0  0  0  0  0  0  0  0  0
    8.3250   44.8400   49.9170 N   0  0  0  0  0  0  0  0  0  0  0  0
    7.1710   45.1570   50.5280 C   0  0  0  0  0  0  0  0  0  0  0  0
    6.9530   46.2460   51.3020 N   0  0  0  0  0  0  0  0  0  0  0  0
    5.7290   46.4150   51.8840 C   0  0  0  0  0  0  0  0  0  0  0  0
    4.6880   45.4630   51.6910 C   0  0  0  0  0  0  0  0  0  0  0  0
    3.3730   45.6630   52.3480 C   0  0  0  0  0  0  0  0  0  0  0  0
    2.4480   46.2410   51.7120 O   0  0  0  0  0  0  0  0  0  0  0  0
    3.1240   45.2010   53.6850 N   0  0  0  0  0  0  0  0  0  0  0  0
    1.8630   45.5110   54.3560 C   0  0  1  0  0  0  0  0  0  0  0  0
    0.9430   44.3050   54.4820 C   0  0  2  0  0  0  0  0  0  0  0  0
   -0.5320   44.6090   54.6960 C   0  0  0  0  0  0  0  0  0  0  0  0
   -0.6200   45.3180   55.9620 N   0  0  0  0  0  0  0  0  0  0  0  0
   -1.8740   45.6480   56.5770 C   0  0  0  0  0  0  0  0  0  0  0  0
   -2.7940   44.7860   56.6070 O   0  0  0  0  0  0  0  0  0  0  0  0
   -2.1070   46.9770   57.1790 C   0  0  0  0  0  0  0  0  0  0  0  0
   -2.9460   47.9160   56.5260 C   0  0  0  0  0  0  0  0  0  0  0  0
   -3.1570   49.1950   57.0730 C   0  0  0  0  0  0  0  0  0  0  0  0
   -2.5130   49.5070   58.2660 C   0  0  0  0  0  0  0  0  0  0  0  0
   -2.5470   50.6760   58.9310 N   0  0  0  0  0  0  0  0  0  0  0  0
   -1.7230   50.4430   59.9860 C   0  0  0  0  0  0  0  0  0  0  0  0
   -1.4180   51.4500   60.9530 N   0  0  0  0  0  0  0  0  0  0  0  0
   -1.1970   49.1900   60.0070 N   0  0  0  0  0  0  0  0  0  0  0  0
   -0.2250   48.6440   60.9520 C   0  0  0  0  0  0  0  0  0  0  0  0
   -1.6960   48.6130   58.8990 C   0  0  0  0  0  0  0  0  0  0  0  0
   -1.4550   47.3390   58.3810 C   0  0  0  0  0  0  0  0  0  0  0  0
    0.6640   45.4440   56.6370 C   0  0  0  0  0  0  0  0  0  0  0  0
    1.6940   44.8210   55.7040 C   0  0  2  0  0  0  0  0  0  0  0  0
    4.9490   44.3240   50.8900 C   0  0  0  0  0  0  0  0  0  0  0  0
    6.2110   44.2140   50.3120 C   0  0  0  0  0  0  0  0  0  0  0  0
    5.8581   41.3702   49.9095 H   0  0  0  0  0  0  0  0  0  0  0  0
    5.2671   42.2045   48.4326 H   0  0  0  0  0  0  0  0  0  0  0  0
    6.8795   41.4128   48.4326 H   0  0  0  0  0  0  0  0  0  0  0  0
    8.8358   43.1092   48.6991 H   0  0  0  0  0  0  0  0  0  0  0  0
    9.2200   45.3810   49.9310 H   0  0  0  0  0  0  0  0  0  0  0  0
    5.5447   47.2997   52.5111 H   0  0  0  0  0  0  0  0  0  0  0  0
    3.8150   44.5810   54.1610 H   0  0  0  0  0  0  0  0  0  0  0  0
    1.7584   46.5449   53.9953 H   0  0  0  0  0  0  0  0  0  0  0  0
    0.8548   43.3840   53.8871 H   0  0  0  0  0  0  0  0  0  0  0  0
   -0.9141   45.2386   53.8789 H   0  0  0  0  0  0  0  0  0  0  0  0
   -1.1334   43.6881   54.7095 H   0  0  0  0  0  0  0  0  0  0  0  0
   -3.4373   47.6411   55.5810 H   0  0  0  0  0  0  0  0  0  0  0  0
   -3.8105   49.9251   56.5732 H   0  0  0  0  0  0  0  0  0  0  0  0
   -2.0500   52.2650   61.1090 H   0  0  0  0  0  0  0  0  0  0  0  0
   -0.5720   51.3520   61.5540 H   0  0  0  0  0  0  0  0  0  0  0  0
   -0.5658   48.8354   61.9802 H   0  0  0  0  0  0  0  0  0  0  0  0
   -0.1287   47.5597   60.7935 H   0  0  0  0  0  0  0  0  0  0  0  0
    0.7511   49.1259   60.7935 H   0  0  0  0  0  0  0  0  0  0  0  0
   -0.7786   46.6381   58.8921 H   0  0  0  0  0  0  0  0  0  0  0  0
    0.9002   46.5037   56.8135 H   0  0  0  0  0  0  0  0  0  0  0  0
    0.6541   44.9436   57.6165 H   0  0  0  0  0  0  0  0  0  0  0  0
    2.4234   44.4602   56.4442 H   0  0  0  0  0  0  0  0  0  0  0  0
    4.1810   43.5529   50.7301 H   0  0  0  0  0  0  0  0  0  0  0  0
  1  2  1  0
  2  3  2  0
  3  4  1  0
  4  5  1  0
  5  6  2  0
  6  7  1  0
  7  8  2  0
  8  9  1  0
  9 10  2  0
  9 11  1  0
 11 12  1  0
 12 13  1  0
 13 14  1  0
 14 15  1  0
 15 16  1  0
 16 17  2  0
 16 18  1  0
 18 19  2  0
 19 20  1  0
 20 21  2  0
 21 22  1  0
 22 23  2  0
 23 24  1  0
 23 25  1  0
 25 26  1  0
 25 27  1  0
 27 28  2  0
 15 29  1  0
 29 30  1  0
  8 31  1  0
 31 32  2  0
 32  2  1  0
 32  5  1  0
 30 12  1  0
 30 13  1  0
 28 18  1  0
 27 21  1  0
  1 33  1  0
  1 34  1  0
  1 35  1  0
  3 36  1  0
  4 37  1  0
  7 38  1  0
 11 39  1  0
 12 40  1  1
 13 41  1  6
 14 42  1  0
 14 43  1  0
 19 44  1  0
 20 45  1  0
 24 46  1  0
 24 47  1  0
 26 48  1  0
 26 49  1  0
 26 50  1  0
 28 51  1  0
 29 52  1  0
 29 53  1  0
 30 54  1  1
 31 55  1  0
M  END
>  <meeko>  (3) 
{"is_sidechain": [false], "free_energy": -8.549, "intermolecular_energy": -11.081, "internal_energy": -0.494}

$$$$
ligand_28_conformer_5_docked
     RDKit          3D

 55 60  0  0  0  0  0  0  0  0999 V2000
    0.2120   35.1190   47.6380 C   0  0  0  0  0  0  0  0  0  0  0  0
    1.0010   35.4040   46.4010 C   0  0  0  0  0  0  0  0  0  0  0  0
    1.1880   34.5510   45.3160 C   0  0  0  0  0  0  0  0  0  0  0  0
    2.0100   35.1200   44.4040 N   0  0  0  0  0  0  0  0  0  0  0  0
    2.3450   36.3160   44.9180 C   0  0  0  0  0  0  0  0  0  0  0  0
    3.1840   37.2180   44.3570 N   0  0  0  0  0  0  0  0  0  0  0  0
    3.4510   38.3810   45.0210 C   0  0  0  0  0  0  0  0  0  0  0  0
    2.8660   38.6530   46.2900 C   0  0  0  0  0  0  0  0  0  0  0  0
    3.1880   39.9170   46.9960 C   0  0  0  0  0  0  0  0  0  0  0  0
    2.5060   40.9510   46.7490 O   0  0  0  0  0  0  0  0  0  0  0  0
    4.2450   39.9890   47.9650 N   0  0  0  0  0  0  0  0  0  0  0  0
    4.6220   41.2680   48.5620 C   0  0  1  0  0  0  0  0  0  0  0  0
    4.7900   41.1930   50.0730 C   0  0  2  0  0  0  0  0  0  0  0  0
    4.6880   42.5140   50.8220 C   0  0  0  0  0  0  0  0  0  0  0  0
    5.7780   43.3420   50.3350 N   0  0  0  0  0  0  0  0  0  0  0  0
    6.0990   44.6160   50.9130 C   0  0  0  0  0  0  0  0  0  0  0  0
    6.9220   45.3710   50.3280 O   0  0  0  0  0  0  0  0  0  0  0  0
    5.4800   45.0620   52.1790 C   0  0  0  0  0  0  0  0  0  0  0  0
    6.1980   45.9080   53.0630 C   0  0  0  0  0  0  0  0  0  0  0  0
    5.6330   46.3200   54.2830 C   0  0  0  0  0  0  0  0  0  0  0  0
    4.3550   45.8670   54.5940 C   0  0  0  0  0  0  0  0  0  0  0  0
    3.6540   46.1070   55.7170 N   0  0  0  0  0  0  0  0  0  0  0  0
    2.5110   45.4010   55.5120 C   0  0  0  0  0  0  0  0  0  0  0  0
    1.4730   45.3280   56.4920 N   0  0  0  0  0  0  0  0  0  0  0  0
    2.4720   44.7530   54.3190 N   0  0  0  0  0  0  0  0  0  0  0  0
    1.4310   43.8540   53.8230 C   0  0  0  0  0  0  0  0  0  0  0  0
    3.6570   45.0450   53.7540 C   0  0  0  0  0  0  0  0  0  0  0  0
    4.1900   44.6080   52.5400 C   0  0  0  0  0  0  0  0  0  0  0  0
    6.6350   42.6550   49.3800 C   0  0  0  0  0  0  0  0  0  0  0  0
    6.0180   41.2780   49.1730 C   0  0  2  0  0  0  0  0  0  0  0  0
    2.0070   37.6840   46.8620 C   0  0  0  0  0  0  0  0  0  0  0  0
    1.7610   36.5240   46.1320 C   0  0  0  0  0  0  0  0  0  0  0  0
    0.8257   35.3407   48.5236 H   0  0  0  0  0  0  0  0  0  0  0  0
   -0.6903   35.7480   47.6504 H   0  0  0  0  0  0  0  0  0  0  0  0
   -0.0801   34.0586   47.6504 H   0  0  0  0  0  0  0  0  0  0  0  0
    0.7318   33.5552   45.2147 H   0  0  0  0  0  0  0  0  0  0  0  0
    2.3290   34.7090   43.4970 H   0  0  0  0  0  0  0  0  0  0  0  0
    4.1289   39.1194   44.5681 H   0  0  0  0  0  0  0  0  0  0  0  0
    4.7060   39.1150   48.3010 H   0  0  0  0  0  0  0  0  0  0  0  0
    4.0768   41.9194   47.8631 H   0  0  0  0  0  0  0  0  0  0  0  0
    4.3558   40.5202   50.8272 H   0  0  0  0  0  0  0  0  0  0  0  0
    3.7212   42.9960   50.6148 H   0  0  0  0  0  0  0  0  0  0  0  0
    4.7541   42.3639   51.9097 H   0  0  0  0  0  0  0  0  0  0  0  0
    7.2089   46.2457   52.7908 H   0  0  0  0  0  0  0  0  0  0  0  0
    6.1840   46.9795   54.9696 H   0  0  0  0  0  0  0  0  0  0  0  0
    0.5900   44.8030   56.3120 H   0  0  0  0  0  0  0  0  0  0  0  0
    1.6120   45.7670   57.4270 H   0  0  0  0  0  0  0  0  0  0  0  0
    0.9037   43.3986   54.6742 H   0  0  0  0  0  0  0  0  0  0  0  0
    0.7160   44.4233   53.2108 H   0  0  0  0  0  0  0  0  0  0  0  0
    1.8901   43.0638   53.2108 H   0  0  0  0  0  0  0  0  0  0  0  0
    3.6236   43.9308   51.8838 H   0  0  0  0  0  0  0  0  0  0  0  0
    6.6655   43.2066   48.4288 H   0  0  0  0  0  0  0  0  0  0  0  0
    7.6687   42.5808   49.7486 H   0  0  0  0  0  0  0  0  0  0  0  0
    6.9253   40.6978   48.9489 H   0  0  0  0  0  0  0  0  0  0  0  0
    1.5493   37.8420   47.8497 H   0  0  0  0  0  0  0  0  0  0  0  0
  1  2  1  0
  2  3  2  0
  3  4  1  0
  4  5  1  0
  5  6  2  0
  6  7  1  0
  7  8  2  0
  8  9  1  0
  9 10  2  0
  9 11  1  0
 11 12  1  0
 12 13  1  0
 13 14  1  0
 14 15  1  0
 15 16  1  0
 16 17  2  0
 16 18  1  0
 18 19  2  0
 19 20  1  0
 20 21  2  0
 21 22  1  0
 22 23  2  0
 23 24  1  0
 23 25  1  0
 25 26  1  0
 25 27  1  0
 27 28  2  0
 15 29  1  0
 29 30  1  0
  8 31  1  0
 31 32  2  0
 32  2  1  0
 32  5  1  0
 30 12  1  0
 30 13  1  0
 28 18  1  0
 27 21  1  0
  1 33  1  0
  1 34  1  0
  1 35  1  0
  3 36  1  0
  4 37  1  0
  7 38  1  0
 11 39  1  0
 12 40  1  1
 13 41  1  1
 14 42  1  0
 14 43  1  0
 19 44  1  0
 20 45  1  0
 24 46  1  0
 24 47  1  0
 26 48  1  0
 26 49  1  0
 26 50  1  0
 28 51  1  0
 29 52  1  0
 29 53  1  0
 30 54  1  6
 31 55  1  0
M  END
>  <meeko>  (4) 
{"is_sidechain": [false], "free_energy": -8.24, "intermolecular_energy": -11.384, "internal_energy": 0.199}

$$$$
ligand_28_conformer_5_docked
     RDKit          3D

 55 60  0  0  0  0  0  0  0  0999 V2000
    8.7240   38.6250   42.0750 C   0  0  0  0  0  0  0  0  0  0  0  0
    7.2560   38.3520   42.1490 C   0  0  0  0  0  0  0  0  0  0  0  0
    6.5320   37.4610   41.3600 C   0  0  0  0  0  0  0  0  0  0  0  0
    5.2150   37.5220   41.6660 N   0  0  0  0  0  0  0  0  0  0  0  0
    5.1130   38.4510   42.6320 C   0  0  0  0  0  0  0  0  0  0  0  0
    3.9660   38.8670   43.2190 N   0  0  0  0  0  0  0  0  0  0  0  0
    4.0220   39.8480   44.1680 C   0  0  0  0  0  0  0  0  0  0  0  0
    5.2620   40.4380   44.5410 C   0  0  0  0  0  0  0  0  0  0  0  0
    5.2910   41.5140   45.5620 C   0  0  0  0  0  0  0  0  0  0  0  0
    5.0000   42.6950   45.2200 O   0  0  0  0  0  0  0  0  0  0  0  0
    5.6280   41.2420   46.9310 N   0  0  0  0  0  0  0  0  0  0  0  0
    5.7650   42.3330   47.8940 C   0  0  1  0  0  0  0  0  0  0  0  0
    5.7580   41.8540   49.3390 C   0  0  2  0  0  0  0  0  0  0  0  0
    5.4000   42.8990   50.3860 C   0  0  0  0  0  0  0  0  0  0  0  0
    6.4280   43.9230   50.3040 N   0  0  0  0  0  0  0  0  0  0  0  0
    6.5130   45.0090   51.2400 C   0  0  0  0  0  0  0  0  0  0  0  0
    7.3960   45.8940   51.0800 O   0  0  0  0  0  0  0  0  0  0  0  0
    5.5830   45.1100   52.3840 C   0  0  0  0  0  0  0  0  0  0  0  0
    6.0670   44.9580   53.7090 C   0  0  0  0  0  0  0  0  0  0  0  0
    5.1910   45.0260   54.8070 C   0  0  0  0  0  0  0  0  0  0  0  0
    3.8400   45.2400   54.5500 C   0  0  0  0  0  0  0  0  0  0  0  0
    2.8380   45.2980   55.4450 N   0  0  0  0  0  0  0  0  0  0  0  0
    1.7460   45.4820   54.6580 C   0  0  0  0  0  0  0  0  0  0  0  0
    0.4220   45.5540   55.1930 N   0  0  0  0  0  0  0  0  0  0  0  0
    2.0290   45.5520   53.3310 N   0  0  0  0  0  0  0  0  0  0  0  0
    1.0870   45.6690   52.2200 C   0  0  0  0  0  0  0  0  0  0  0  0
    3.3620   45.3800   53.2770 C   0  0  0  0  0  0  0  0  0  0  0  0
    4.2010   45.3080   52.1630 C   0  0  0  0  0  0  0  0  0  0  0  0
    7.4730   43.6090   49.3420 C   0  0  0  0  0  0  0  0  0  0  0  0
    7.0650   42.2950   48.6890 C   0  0  2  0  0  0  0  0  0  0  0  0
    6.4450   39.9980   43.8970 C   0  0  0  0  0  0  0  0  0  0  0  0
    6.3270   38.9850   42.9480 C   0  0  0  0  0  0  0  0  0  0  0  0
    9.1345   38.7013   43.0927 H   0  0  0  0  0  0  0  0  0  0  0  0
    9.2230   37.8043   41.5389 H   0  0  0  0  0  0  0  0  0  0  0  0
    8.8946   39.5703   41.5389 H   0  0  0  0  0  0  0  0  0  0  0  0
    6.9690   36.8010   40.5961 H   0  0  0  0  0  0  0  0  0  0  0  0
    4.4400   36.9720   41.2320 H   0  0  0  0  0  0  0  0  0  0  0  0
    3.0940   40.1872   44.6514 H   0  0  0  0  0  0  0  0  0  0  0  0
    5.7090   40.2560   47.2630 H   0  0  0  0  0  0  0  0  0  0  0  0
    5.2301   43.1028   47.3185 H   0  0  0  0  0  0  0  0  0  0  0  0
    5.3248   40.9617   49.8144 H   0  0  0  0  0  0  0  0  0  0  0  0
    4.4121   43.3321   50.1704 H   0  0  0  0  0  0  0  0  0  0  0  0
    5.3524   42.4582   51.3927 H   0  0  0  0  0  0  0  0  0  0  0  0
    7.1399   44.7850   53.8794 H   0  0  0  0  0  0  0  0  0  0  0  0
    5.5618   44.9136   55.8365 H   0  0  0  0  0  0  0  0  0  0  0  0
   -0.1530   46.4210   55.1110 H   0  0  0  0  0  0  0  0  0  0  0  0
   -0.0040   44.7120   55.6360 H   0  0  0  0  0  0  0  0  0  0  0  0
    0.0682   45.7955   52.6149 H   0  0  0  0  0  0  0  0  0  0  0  0
    1.3526   46.5411   51.6044 H   0  0  0  0  0  0  0  0  0  0  0  0
    1.1312   44.7585   51.6044 H   0  0  0  0  0  0  0  0  0  0  0  0
    3.7983   45.4026   51.1437 H   0  0  0  0  0  0  0  0  0  0  0  0
    7.5471   44.4043   48.5857 H   0  0  0  0  0  0  0  0  0  0  0  0
    8.4561   43.5276   49.8288 H   0  0  0  0  0  0  0  0  0  0  0  0
    8.0586   41.8826   48.4592 H   0  0  0  0  0  0  0  0  0  0  0  0
    7.4226   40.4409   44.1380 H   0  0  0  0  0  0  0  0  0  0  0  0
  1  2  1  0
  2  3  2  0
  3  4  1  0
  4  5  1  0
  5  6  2  0
  6  7  1  0
  7  8  2  0
  8  9  1  0
  9 10  2  0
  9 11  1  0
 11 12  1  0
 12 13  1  0
 13 14  1  0
 14 15  1  0
 15 16  1  0
 16 17  2  0
 16 18  1  0
 18 19  2  0
 19 20  1  0
 20 21  2  0
 21 22  1  0
 22 23  2  0
 23 24  1  0
 23 25  1  0
 25 26  1  0
 25 27  1  0
 27 28  2  0
 15 29  1  0
 29 30  1  0
  8 31  1  0
 31 32  2  0
 32  2  1  0
 32  5  1  0
 30 12  1  0
 30 13  1  0
 28 18  1  0
 27 21  1  0
  1 33  1  0
  1 34  1  0
  1 35  1  0
  3 36  1  0
  4 37  1  0
  7 38  1  0
 11 39  1  0
 12 40  1  1
 13 41  1  6
 14 42  1  0
 14 43  1  0
 19 44  1  0
 20 45  1  0
 24 46  1  0
 24 47  1  0
 26 48  1  0
 26 49  1  0
 26 50  1  0
 28 51  1  0
 29 52  1  0
 29 53  1  0
 30 54  1  6
 31 55  1  0
M  END
>  <meeko>  (5) 
{"is_sidechain": [false], "free_energy": -8.129, "intermolecular_energy": -10.642, "internal_energy": -0.403}

$$$$
