MODEL 1
REMARK VINA RESULT:   -10.219      0.000      0.000
REMARK INTER + INTRA:         -12.162
REMARK INTER:                 -12.011
REMARK INTRA:                  -0.151
REMARK UNBOUND:                -0.151
REMARK SMILES O=c1[nH]c(CN2CCC(c3nc4ccccc4[nH]3)CC2)nc2c1oc1ccccc12
REMARK SMILES IDX 6 1 7 2 8 3 9 4 19 5 20 6 5 7 4 8 1 9 2 10 3 11 23 12 24 13
REMARK SMILES IDX 22 14 21 15 25 16 30 17 26 18 29 19 27 20 28 21 10 23 11 24
REMARK SMILES IDX 18 25 12 26 17 27 13 28 16 29 14 30 15 31
REMARK H PARENT 3 22 18 32
ROOT
ATOM      1  N   UNL     1       2.790  43.924  53.008  1.00  0.00    -0.296 NA
ATOM      2  C   UNL     1       2.472  45.354  52.815  1.00  0.00     0.086 C 
ATOM      3  C   UNL     1       2.228  46.043  54.172  1.00  0.00     0.027 C 
ATOM      4  C   UNL     1       1.794  45.043  55.264  1.00  0.00     0.058 C 
ATOM      5  C   UNL     1       0.895  43.948  54.669  1.00  0.00     0.027 C 
ATOM      6  C   UNL     1       1.608  43.194  53.523  1.00  0.00     0.086 C 
ENDROOT
BRANCH   1   7
ATOM      7  C   UNL     1       3.266  43.308  51.755  1.00  0.00     0.159 C 
BRANCH   7   8
ATOM      8  C   UNL     1       4.646  43.799  51.426  1.00  0.00     0.124 A 
ATOM      9  O   UNL     1       7.078  43.513  48.864  1.00  0.00    -0.265 OA
ATOM     10  C   UNL     1       6.515  43.872  49.932  1.00  0.00     0.294 A 
ATOM     11  N   UNL     1       5.269  43.412  50.259  1.00  0.00    -0.306 N 
ATOM     12  C   UNL     1       7.140  44.744  50.811  1.00  0.00     0.218 A 
ATOM     13  O   UNL     1       8.324  45.319  50.720  1.00  0.00    -0.449 OA
ATOM     14  C   UNL     1       6.500  45.114  51.959  1.00  0.00     0.124 A 
ATOM     15  N   UNL     1       5.267  44.664  52.286  1.00  0.00    -0.229 NA
ATOM     16  C   UNL     1       8.456  46.062  51.805  1.00  0.00     0.137 A 
ATOM     17  C   UNL     1       7.341  45.970  52.615  1.00  0.00     0.047 A 
ATOM     18  C   UNL     1       9.539  46.862  52.160  1.00  0.00     0.048 A 
ATOM     19  C   UNL     1       7.233  46.662  53.818  1.00  0.00     0.014 A 
ATOM     20  C   UNL     1       9.463  47.575  53.373  1.00  0.00     0.004 A 
ATOM     21  C   UNL     1       8.317  47.476  54.196  1.00  0.00     0.001 A 
ATOM     22  H   UNL     1       4.782  42.760  49.603  1.00  0.00     0.171 HD
ENDBRANCH   7   8
ENDBRANCH   1   7
BRANCH   4  23
ATOM     23  C   UNL     1       1.107  45.756  56.397  1.00  0.00     0.110 A 
ATOM     24  N   UNL     1      -0.221  46.056  56.394  1.00  0.00    -0.233 NA
ATOM     25  N   UNL     1       1.765  46.209  57.494  1.00  0.00    -0.342 N 
ATOM     26  C   UNL     1      -0.380  46.713  57.557  1.00  0.00     0.089 A 
ATOM     27  C   UNL     1       0.810  46.806  58.217  1.00  0.00     0.065 A 
ATOM     28  C   UNL     1      -1.551  47.255  58.077  1.00  0.00     0.030 A 
ATOM     29  C   UNL     1       0.929  47.448  59.447  1.00  0.00     0.028 A 
ATOM     30  C   UNL     1      -1.473  47.912  59.321  1.00  0.00     0.002 A 
ATOM     31  C   UNL     1      -0.238  48.007  60.004  1.00  0.00     0.002 A 
ATOM     32  H   UNL     1       2.780  46.119  57.720  1.00  0.00     0.168 HD
ENDBRANCH   4  23
TORSDOF 3
ENDMDL
MODEL 2
REMARK VINA RESULT:    -9.806      3.570      8.866
REMARK INTER + INTRA:         -11.677
REMARK INTER:                 -11.537
REMARK INTRA:                  -0.140
REMARK UNBOUND:                -0.151
REMARK SMILES O=c1[nH]c(CN2CCC(c3nc4ccccc4[nH]3)CC2)nc2c1oc1ccccc12
REMARK SMILES IDX 6 1 7 2 8 3 9 4 19 5 20 6 5 7 4 8 1 9 2 10 3 11 23 12 24 13
REMARK SMILES IDX 22 14 21 15 25 16 30 17 26 18 29 19 27 20 28 21 10 23 11 24
REMARK SMILES IDX 18 25 12 26 17 27 13 28 16 29 14 30 15 31
REMARK H PARENT 3 22 18 32
ROOT
ATOM      1  N   UNL     1       1.795  44.272  53.655  1.00  0.00    -0.296 NA
ATOM      2  C   UNL     1       2.647  43.477  52.746  1.00  0.00     0.086 C 
ATOM      3  C   UNL     1       4.135  43.805  52.973  1.00  0.00     0.027 C 
ATOM      4  C   UNL     1       4.336  45.204  53.592  1.00  0.00     0.058 C 
ATOM      5  C   UNL     1       3.302  46.195  53.036  1.00  0.00     0.027 C 
ATOM      6  C   UNL     1       1.858  45.710  53.300  1.00  0.00     0.086 C 
ENDROOT
BRANCH   1   7
ATOM      7  C   UNL     1       0.397  43.800  53.628  1.00  0.00     0.159 C 
BRANCH   7   8
ATOM      8  C   UNL     1      -0.445  44.616  54.566  1.00  0.00     0.124 A 
ATOM      9  O   UNL     1      -3.825  45.578  55.021  1.00  0.00    -0.265 OA
ATOM     10  C   UNL     1      -2.586  45.464  55.218  1.00  0.00     0.294 A 
ATOM     11  N   UNL     1      -1.801  44.745  54.358  1.00  0.00    -0.306 N 
ATOM     12  C   UNL     1      -1.979  46.062  56.313  1.00  0.00     0.218 A 
ATOM     13  O   UNL     1      -2.513  46.792  57.271  1.00  0.00    -0.449 OA
ATOM     14  C   UNL     1      -0.633  45.916  56.496  1.00  0.00     0.124 A 
ATOM     15  N   UNL     1       0.147  45.205  55.651  1.00  0.00    -0.229 NA
ATOM     16  C   UNL     1      -1.520  47.122  58.080  1.00  0.00     0.137 A 
ATOM     17  C   UNL     1      -0.320  46.597  57.640  1.00  0.00     0.047 A 
ATOM     18  C   UNL     1      -1.588  47.889  59.240  1.00  0.00     0.048 A 
ATOM     19  C   UNL     1       0.877  46.800  58.320  1.00  0.00     0.014 A 
ATOM     20  C   UNL     1      -0.394  48.115  59.952  1.00  0.00     0.004 A 
ATOM     21  C   UNL     1       0.831  47.573  59.495  1.00  0.00     0.001 A 
ATOM     22  H   UNL     1      -2.246  44.283  53.533  1.00  0.00     0.171 HD
ENDBRANCH   7   8
ENDBRANCH   1   7
BRANCH   4  23
ATOM     23  C   UNL     1       5.740  45.693  53.357  1.00  0.00     0.110 A 
ATOM     24  N   UNL     1       6.378  45.584  52.159  1.00  0.00    -0.233 NA
ATOM     25  N   UNL     1       6.508  46.237  54.335  1.00  0.00    -0.342 N 
ATOM     26  C   UNL     1       7.592  46.101  52.421  1.00  0.00     0.089 A 
ATOM     27  C   UNL     1       7.672  46.492  53.725  1.00  0.00     0.065 A 
ATOM     28  C   UNL     1       8.665  46.243  51.546  1.00  0.00     0.030 A 
ATOM     29  C   UNL     1       8.827  47.054  54.262  1.00  0.00     0.028 A 
ATOM     30  C   UNL     1       9.851  46.809  52.051  1.00  0.00     0.002 A 
ATOM     31  C   UNL     1       9.932  47.214  53.404  1.00  0.00     0.002 A 
ATOM     32  H   UNL     1       6.255  46.411  55.333  1.00  0.00     0.168 HD
ENDBRANCH   4  23
TORSDOF 3
ENDMDL
MODEL 3
REMARK VINA RESULT:    -9.574      3.620      8.638
REMARK INTER + INTRA:         -11.404
REMARK INTER:                 -10.924
REMARK INTRA:                  -0.481
REMARK UNBOUND:                -0.151
REMARK SMILES O=c1[nH]c(CN2CCC(c3nc4ccccc4[nH]3)CC2)nc2c1oc1ccccc12
REMARK SMILES IDX 6 1 7 2 8 3 9 4 19 5 20 6 5 7 4 8 1 9 2 10 3 11 23 12 24 13
REMARK SMILES IDX 22 14 21 15 25 16 30 17 26 18 29 19 27 20 28 21 10 23 11 24
REMARK SMILES IDX 18 25 12 26 17 27 13 28 16 29 14 30 15 31
REMARK H PARENT 3 22 18 32
ROOT
ATOM      1  N   UNL     1       2.332  43.698  51.396  1.00  0.00    -0.296 NA
ATOM      2  C   UNL     1       3.493  42.855  51.038  1.00  0.00     0.086 C 
ATOM      3  C   UNL     1       4.766  43.359  51.744  1.00  0.00     0.027 C 
ATOM      4  C   UNL     1       4.672  44.852  52.123  1.00  0.00     0.058 C 
ATOM      5  C   UNL     1       3.905  45.635  51.046  1.00  0.00     0.027 C 
ATOM      6  C   UNL     1       2.487  45.060  50.832  1.00  0.00     0.086 C 
ENDROOT
BRANCH   1   7
ATOM      7  C   UNL     1       1.069  43.093  50.933  1.00  0.00     0.159 C 
BRANCH   7   8
ATOM      8  C   UNL     1      -0.030  43.366  51.920  1.00  0.00     0.124 A 
ATOM      9  O   UNL     1      -3.490  42.737  52.355  1.00  0.00    -0.265 OA
ATOM     10  C   UNL     1      -2.319  43.143  52.582  1.00  0.00     0.294 A 
ATOM     11  N   UNL     1      -1.313  42.925  51.680  1.00  0.00    -0.306 N 
ATOM     12  C   UNL     1      -2.012  43.821  53.752  1.00  0.00     0.218 A 
ATOM     13  O   UNL     1      -2.796  44.146  54.761  1.00  0.00    -0.449 OA
ATOM     14  C   UNL     1      -0.731  44.245  53.966  1.00  0.00     0.124 A 
ATOM     15  N   UNL     1       0.267  44.031  53.079  1.00  0.00    -0.229 NA
ATOM     16  C   UNL     1      -2.029  44.779  55.633  1.00  0.00     0.137 A 
ATOM     17  C   UNL     1      -0.726  44.868  55.183  1.00  0.00     0.047 A 
ATOM     18  C   UNL     1      -2.404  45.315  56.863  1.00  0.00     0.048 A 
ATOM     19  C   UNL     1       0.278  45.488  55.922  1.00  0.00     0.014 A 
ATOM     20  C   UNL     1      -1.412  45.951  57.635  1.00  0.00     0.004 A 
ATOM     21  C   UNL     1      -0.079  46.036  57.167  1.00  0.00     0.001 A 
ATOM     22  H   UNL     1      -1.528  42.409  50.797  1.00  0.00     0.171 HD
ENDBRANCH   7   8
ENDBRANCH   1   7
BRANCH   4  23
ATOM     23  C   UNL     1       6.042  45.432  52.347  1.00  0.00     0.110 A 
ATOM     24  N   UNL     1       7.029  45.400  51.410  1.00  0.00    -0.233 NA
ATOM     25  N   UNL     1       6.427  45.990  53.523  1.00  0.00    -0.342 N 
ATOM     26  C   UNL     1       8.062  45.980  52.046  1.00  0.00     0.089 A 
ATOM     27  C   UNL     1       7.703  46.334  53.313  1.00  0.00     0.065 A 
ATOM     28  C   UNL     1       9.343  46.215  51.554  1.00  0.00     0.030 A 
ATOM     29  C   UNL     1       8.591  46.948  54.193  1.00  0.00     0.028 A 
ATOM     30  C   UNL     1      10.271  46.836  52.414  1.00  0.00     0.002 A 
ATOM     31  C   UNL     1       9.895  47.202  53.728  1.00  0.00     0.002 A 
ATOM     32  H   UNL     1       5.862  46.117  54.392  1.00  0.00     0.168 HD
ENDBRANCH   4  23
TORSDOF 3
ENDMDL
MODEL 4
REMARK VINA RESULT:    -9.464      3.940      8.914
REMARK INTER + INTRA:         -11.276
REMARK INTER:                 -10.783
REMARK INTRA:                  -0.493
REMARK UNBOUND:                -0.151
REMARK SMILES O=c1[nH]c(CN2CCC(c3nc4ccccc4[nH]3)CC2)nc2c1oc1ccccc12
REMARK SMILES IDX 6 1 7 2 8 3 9 4 19 5 20 6 5 7 4 8 1 9 2 10 3 11 23 12 24 13
REMARK SMILES IDX 22 14 21 15 25 16 30 17 26 18 29 19 27 20 28 21 10 23 11 24
REMARK SMILES IDX 18 25 12 26 17 27 13 28 16 29 14 30 15 31
REMARK H PARENT 3 22 18 32
ROOT
ATOM      1  N   UNL     1       2.140  43.715  51.629  1.00  0.00    -0.296 NA
ATOM      2  C   UNL     1       3.318  42.929  51.206  1.00  0.00     0.086 C 
ATOM      3  C   UNL     1       4.591  43.444  51.903  1.00  0.00     0.027 C 
ATOM      4  C   UNL     1       4.457  44.915  52.352  1.00  0.00     0.058 C 
ATOM      5  C   UNL     1       3.638  45.719  51.331  1.00  0.00     0.027 C 
ATOM      6  C   UNL     1       2.235  45.105  51.125  1.00  0.00     0.086 C 
ENDROOT
BRANCH   1   7
ATOM      7  C   UNL     1       0.885  43.088  51.169  1.00  0.00     0.159 C 
BRANCH   7   8
ATOM      8  C   UNL     1      -0.298  43.833  51.717  1.00  0.00     0.124 A 
ATOM      9  O   UNL     1      -3.047  45.754  50.572  1.00  0.00    -0.265 OA
ATOM     10  C   UNL     1      -2.261  45.153  51.352  1.00  0.00     0.294 A 
ATOM     11  N   UNL     1      -1.164  44.492  50.871  1.00  0.00    -0.306 N 
ATOM     12  C   UNL     1      -2.482  45.142  52.721  1.00  0.00     0.218 A 
ATOM     13  O   UNL     1      -3.457  45.695  53.416  1.00  0.00    -0.449 OA
ATOM     14  C   UNL     1      -1.611  44.479  53.536  1.00  0.00     0.124 A 
ATOM     15  N   UNL     1      -0.526  43.822  53.067  1.00  0.00    -0.229 NA
ATOM     16  C   UNL     1      -3.223  45.393  54.682  1.00  0.00     0.137 A 
ATOM     17  C   UNL     1      -2.078  44.632  54.812  1.00  0.00     0.047 A 
ATOM     18  C   UNL     1      -3.979  45.753  55.795  1.00  0.00     0.048 A 
ATOM     19  C   UNL     1      -1.617  44.183  56.047  1.00  0.00     0.014 A 
ATOM     20  C   UNL     1      -3.539  45.316  57.060  1.00  0.00     0.004 A 
ATOM     21  C   UNL     1      -2.365  44.536  57.184  1.00  0.00     0.001 A 
ATOM     22  H   UNL     1      -0.988  44.486  49.841  1.00  0.00     0.171 HD
ENDBRANCH   7   8
ENDBRANCH   1   7
BRANCH   4  23
ATOM     23  C   UNL     1       5.813  45.531  52.570  1.00  0.00     0.110 A 
ATOM     24  N   UNL     1       6.800  45.514  51.632  1.00  0.00    -0.233 NA
ATOM     25  N   UNL     1       6.184  46.109  53.740  1.00  0.00    -0.342 N 
ATOM     26  C   UNL     1       7.818  46.126  52.262  1.00  0.00     0.089 A 
ATOM     27  C   UNL     1       7.451  46.483  53.526  1.00  0.00     0.065 A 
ATOM     28  C   UNL     1       9.093  46.387  51.768  1.00  0.00     0.030 A 
ATOM     29  C   UNL     1       8.323  47.127  54.399  1.00  0.00     0.028 A 
ATOM     30  C   UNL     1      10.005  47.040  52.621  1.00  0.00     0.002 A 
ATOM     31  C   UNL     1       9.621  47.409  53.932  1.00  0.00     0.002 A 
ATOM     32  H   UNL     1       5.616  46.230  54.608  1.00  0.00     0.168 HD
ENDBRANCH   4  23
TORSDOF 3
ENDMDL
MODEL 5
REMARK VINA RESULT:    -9.028      5.656      9.705
REMARK INTER + INTRA:         -10.762
REMARK INTER:                 -10.730
REMARK INTRA:                  -0.032
REMARK UNBOUND:                -0.151
REMARK SMILES O=c1[nH]c(CN2CCC(c3nc4ccccc4[nH]3)CC2)nc2c1oc1ccccc12
REMARK SMILES IDX 6 1 7 2 8 3 9 4 19 5 20 6 5 7 4 8 1 9 2 10 3 11 23 12 24 13
REMARK SMILES IDX 22 14 21 15 25 16 30 17 26 18 29 19 27 20 28 21 10 23 11 24
REMARK SMILES IDX 18 25 12 26 17 27 13 28 16 29 14 30 15 31
REMARK H PARENT 3 22 18 32
ROOT
ATOM      1  N   UNL     1       4.255  41.303  49.385  1.00  0.00    -0.296 NA
ATOM      2  C   UNL     1       3.872  41.559  50.790  1.00  0.00     0.086 C 
ATOM      3  C   UNL     1       4.325  42.966  51.227  1.00  0.00     0.027 C 
ATOM      4  C   UNL     1       5.508  43.486  50.383  1.00  0.00     0.058 C 
ATOM      5  C   UNL     1       6.462  42.337  50.024  1.00  0.00     0.027 C 
ATOM      6  C   UNL     1       5.729  41.214  49.257  1.00  0.00     0.086 C 
ENDROOT
BRANCH   1   7
ATOM      7  C   UNL     1       3.621  40.073  48.874  1.00  0.00     0.159 C 
BRANCH   7   8
ATOM      8  C   UNL     1       3.495  40.136  47.379  1.00  0.00     0.124 A 
ATOM      9  O   UNL     1       5.179  41.514  44.582  1.00  0.00    -0.265 OA
ATOM     10  C   UNL     1       4.332  40.876  45.262  1.00  0.00     0.294 A 
ATOM     11  N   UNL     1       4.418  40.831  46.627  1.00  0.00    -0.306 N 
ATOM     12  C   UNL     1       3.287  40.199  44.651  1.00  0.00     0.218 A 
ATOM     13  O   UNL     1       2.995  40.093  43.369  1.00  0.00    -0.449 OA
ATOM     14  C   UNL     1       2.388  39.517  45.419  1.00  0.00     0.124 A 
ATOM     15  N   UNL     1       2.469  39.467  46.768  1.00  0.00    -0.229 NA
ATOM     16  C   UNL     1       1.910  39.341  43.301  1.00  0.00     0.137 A 
ATOM     17  C   UNL     1       1.488  38.953  44.558  1.00  0.00     0.047 A 
ATOM     18  C   UNL     1       1.221  38.946  42.157  1.00  0.00     0.048 A 
ATOM     19  C   UNL     1       0.366  38.154  44.754  1.00  0.00     0.014 A 
ATOM     20  C   UNL     1       0.080  38.136  42.321  1.00  0.00     0.004 A 
ATOM     21  C   UNL     1      -0.345  37.743  43.612  1.00  0.00     0.001 A 
ATOM     22  H   UNL     1       5.204  41.330  47.102  1.00  0.00     0.171 HD
ENDBRANCH   7   8
ENDBRANCH   1   7
BRANCH   4  23
ATOM     23  C   UNL     1       6.232  44.590  51.106  1.00  0.00     0.110 A 
ATOM     24  N   UNL     1       7.194  45.358  50.524  1.00  0.00    -0.233 NA
ATOM     25  N   UNL     1       6.024  44.878  52.416  1.00  0.00    -0.342 N 
ATOM     26  C   UNL     1       7.580  46.163  51.531  1.00  0.00     0.089 A 
ATOM     27  C   UNL     1       6.880  45.876  52.665  1.00  0.00     0.065 A 
ATOM     28  C   UNL     1       8.550  47.161  51.500  1.00  0.00     0.030 A 
ATOM     29  C   UNL     1       7.091  46.559  53.860  1.00  0.00     0.028 A 
ATOM     30  C   UNL     1       8.792  47.876  52.689  1.00  0.00     0.002 A 
ATOM     31  C   UNL     1       8.064  47.576  53.865  1.00  0.00     0.002 A 
ATOM     32  H   UNL     1       5.357  44.424  53.078  1.00  0.00     0.168 HD
ENDBRANCH   4  23
TORSDOF 3
ENDMDL
