ligand_41_conformer_2_docked
     RDKit          3D

 43 45  0  0  0  0  0  0  0  0999 V2000
   -1.4530   44.0740   55.2550 C   0  0  0  0  0  0  0  0  0  0  0  0
   -0.5250   43.5480   54.2610 N   0  0  0  0  0  0  0  0  0  0  0  0
   -0.8990   42.7560   53.2690 N   0  0  0  0  0  0  0  0  0  0  0  0
    0.1950   42.4620   52.5390 C   0  0  0  0  0  0  0  0  0  0  0  0
    1.3000   43.0880   53.0890 C   0  0  0  0  0  0  0  0  0  0  0  0
    2.6790   43.0610   52.5560 C   0  0  0  0  0  0  0  0  0  0  0  0
    3.1740   41.9700   52.1670 O   0  0  0  0  0  0  0  0  0  0  0  0
    3.4760   44.2580   52.5070 N   0  0  0  0  0  0  0  0  0  0  0  0
    2.9370   45.5030   51.9460 C   0  0  0  0  0  0  0  0  0  0  0  0
    3.6960   45.8600   50.6630 C   0  0  0  0  0  0  0  0  0  0  0  0
    5.2210   45.8830   50.8980 C   0  0  0  0  0  0  0  0  0  0  0  0
    5.5810   46.9440   51.7890 O   0  0  0  0  0  0  0  0  0  0  0  0
    6.7910   47.0530   52.4910 C   0  0  0  0  0  0  0  0  0  0  0  0
    6.7470   47.0160   53.8900 C   0  0  0  0  0  0  0  0  0  0  0  0
    7.9210   47.1210   54.6430 C   0  0  0  0  0  0  0  0  0  0  0  0
    9.1540   47.2610   54.0010 C   0  0  0  0  0  0  0  0  0  0  0  0
   10.6260   47.3930   54.9450 Cl  0  0  0  0  0  0  0  0  0  0  0  0
    9.2120   47.2940   52.6040 C   0  0  0  0  0  0  0  0  0  0  0  0
    8.0390   47.1900   51.8490 C   0  0  0  0  0  0  0  0  0  0  0  0
    5.6910   44.5450   51.4950 C   0  0  0  0  0  0  0  0  0  0  0  0
    4.9180   44.2040   52.7720 C   0  0  0  0  0  0  0  0  0  0  0  0
    0.8070   43.7740   54.1910 C   0  0  0  0  0  0  0  0  0  0  0  0
    1.5880   44.6420   55.1390 C   0  0  0  0  0  0  0  0  0  0  0  0
    1.2390   44.3390   56.4410 F   0  0  0  0  0  0  0  0  0  0  0  0
    1.3230   45.9760   54.8860 F   0  0  0  0  0  0  0  0  0  0  0  0
   -1.0713   43.8576   56.2637 H   0  0  0  0  0  0  0  0  0  0  0  0
   -1.5510   45.1620   55.1256 H   0  0  0  0  0  0  0  0  0  0  0  0
   -2.4368   43.5992   55.1256 H   0  0  0  0  0  0  0  0  0  0  0  0
    0.2077   41.8229   51.6438 H   0  0  0  0  0  0  0  0  0  0  0  0
    1.8700   45.3685   51.7147 H   0  0  0  0  0  0  0  0  0  0  0  0
    3.0556   46.3151   52.6785 H   0  0  0  0  0  0  0  0  0  0  0  0
    3.4643   45.1121   49.8904 H   0  0  0  0  0  0  0  0  0  0  0  0
    3.3803   46.8637   50.3423 H   0  0  0  0  0  0  0  0  0  0  0  0
    5.7096   46.0453   49.9259 H   0  0  0  0  0  0  0  0  0  0  0  0
    5.7799   46.9033   54.4018 H   0  0  0  0  0  0  0  0  0  0  0  0
    7.8735   47.0933   55.7416 H   0  0  0  0  0  0  0  0  0  0  0  0
   10.1825   47.4020   52.0976 H   0  0  0  0  0  0  0  0  0  0  0  0
    8.0903   47.2152   50.7505 H   0  0  0  0  0  0  0  0  0  0  0  0
    5.5312   43.7467   50.7553 H   0  0  0  0  0  0  0  0  0  0  0  0
    6.7579   44.6331   51.7478 H   0  0  0  0  0  0  0  0  0  0  0  0
    5.1908   43.1918   53.1052 H   0  0  0  0  0  0  0  0  0  0  0  0
    5.1715   44.9322   53.5565 H   0  0  0  0  0  0  0  0  0  0  0  0
    2.6623   44.4548   54.9949 H   0  0  0  0  0  0  0  0  0  0  0  0
  1  2  1  0
  2  3  1  0
  3  4  2  0
  4  5  1  0
  5  6  1  0
  6  7  2  0
  6  8  1  0
  8  9  1  0
  9 10  1  0
 10 11  1  0
 11 12  1  0
 12 13  1  0
 13 14  2  0
 14 15  1  0
 15 16  2  0
 16 17  1  0
 16 18  1  0
 18 19  2  0
 11 20  1  0
 20 21  1  0
  5 22  2  0
 22 23  1  0
 23 24  1  0
 23 25  1  0
 22  2  1  0
 21  8  1  0
 19 13  1  0
  1 26  1  0
  1 27  1  0
  1 28  1  0
  4 29  1  0
  9 30  1  0
  9 31  1  0
 10 32  1  0
 10 33  1  0
 11 34  1  0
 14 35  1  0
 15 36  1  0
 18 37  1  0
 19 38  1  0
 20 39  1  0
 20 40  1  0
 21 41  1  0
 21 42  1  0
 23 43  1  0
M  END
>  <meeko>  (1) 
{"is_sidechain": [false], "free_energy": -8.502, "intermolecular_energy": -10.49, "internal_energy": -0.331}

$$$$
ligand_41_conformer_2_docked
     RDKit          3D

 43 45  0  0  0  0  0  0  0  0999 V2000
   -2.1110   46.3620   57.0310 C   0  0  0  0  0  0  0  0  0  0  0  0
   -1.5520   45.6110   55.9130 N   0  0  0  0  0  0  0  0  0  0  0  0
   -2.2640   45.2440   54.8590 N   0  0  0  0  0  0  0  0  0  0  0  0
   -1.4470   44.5770   54.0200 C   0  0  0  0  0  0  0  0  0  0  0  0
   -0.1750   44.5190   54.5610 C   0  0  0  0  0  0  0  0  0  0  0  0
    1.0200   43.9210   53.9290 C   0  0  0  0  0  0  0  0  0  0  0  0
    1.1130   42.6680   53.8360 O   0  0  0  0  0  0  0  0  0  0  0  0
    2.0950   44.7480   53.4480 N   0  0  0  0  0  0  0  0  0  0  0  0
    1.8280   45.9140   52.5970 C   0  0  0  0  0  0  0  0  0  0  0  0
    2.4080   45.6730   51.1990 C   0  0  0  0  0  0  0  0  0  0  0  0
    3.8960   45.2700   51.2670 C   0  0  0  0  0  0  0  0  0  0  0  0
    4.6920   46.3510   51.7620 O   0  0  0  0  0  0  0  0  0  0  0  0
    6.0940   46.3800   51.8190 C   0  0  0  0  0  0  0  0  0  0  0  0
    6.8080   45.6470   50.8620 C   0  0  0  0  0  0  0  0  0  0  0  0
    8.2060   45.6380   50.8700 C   0  0  0  0  0  0  0  0  0  0  0  0
    8.9060   46.3660   51.8360 C   0  0  0  0  0  0  0  0  0  0  0  0
   10.6600   46.3540   51.8460 Cl  0  0  0  0  0  0  0  0  0  0  0  0
    8.2050   47.1050   52.7940 C   0  0  0  0  0  0  0  0  0  0  0  0
    6.8060   47.1160   52.7880 C   0  0  0  0  0  0  0  0  0  0  0  0
    4.0780   44.0490   52.1860 C   0  0  0  0  0  0  0  0  0  0  0  0
    3.4880   44.3080   53.5760 C   0  0  0  0  0  0  0  0  0  0  0  0
   -0.2750   45.1880   55.7740 C   0  0  0  0  0  0  0  0  0  0  0  0
    0.8310   45.4340   56.7640 C   0  0  0  0  0  0  0  0  0  0  0  0
    1.8900   46.0570   56.1320 F   0  0  0  0  0  0  0  0  0  0  0  0
    1.2540   44.2340   57.3070 F   0  0  0  0  0  0  0  0  0  0  0  0
   -1.7768   45.9130   57.9779 H   0  0  0  0  0  0  0  0  0  0  0  0
   -1.7685   47.4060   56.9792 H   0  0  0  0  0  0  0  0  0  0  0  0
   -3.2094   46.3335   56.9792 H   0  0  0  0  0  0  0  0  0  0  0  0
   -1.7457   44.1450   53.0535 H   0  0  0  0  0  0  0  0  0  0  0  0
    0.7419   46.0707   52.5208 H   0  0  0  0  0  0  0  0  0  0  0  0
    2.2982   46.8047   53.0393 H   0  0  0  0  0  0  0  0  0  0  0  0
    1.8411   44.8667   50.7107 H   0  0  0  0  0  0  0  0  0  0  0  0
    2.3292   46.6088   50.6262 H   0  0  0  0  0  0  0  0  0  0  0  0
    4.2243   45.0169   50.2481 H   0  0  0  0  0  0  0  0  0  0  0  0
    6.2637   45.0734   50.0974 H   0  0  0  0  0  0  0  0  0  0  0  0
    8.7558   45.0571   50.1149 H   0  0  0  0  0  0  0  0  0  0  0  0
    8.7549   47.6791   53.5543 H   0  0  0  0  0  0  0  0  0  0  0  0
    6.2595   47.7012   53.5422 H   0  0  0  0  0  0  0  0  0  0  0  0
    3.5702   43.1829   51.7365 H   0  0  0  0  0  0  0  0  0  0  0  0
    5.1549   43.8536   52.2959 H   0  0  0  0  0  0  0  0  0  0  0  0
    3.5258   43.3814   54.1676 H   0  0  0  0  0  0  0  0  0  0  0  0
    4.0727   45.0921   54.0794 H   0  0  0  0  0  0  0  0  0  0  0  0
    0.4550   46.0809   57.5703 H   0  0  0  0  0  0  0  0  0  0  0  0
  1  2  1  0
  2  3  1  0
  3  4  2  0
  4  5  1  0
  5  6  1  0
  6  7  2  0
  6  8  1  0
  8  9  1  0
  9 10  1  0
 10 11  1  0
 11 12  1  0
 12 13  1  0
 13 14  2  0
 14 15  1  0
 15 16  2  0
 16 17  1  0
 16 18  1  0
 18 19  2  0
 11 20  1  0
 20 21  1  0
  5 22  2  0
 22 23  1  0
 23 24  1  0
 23 25  1  0
 22  2  1  0
 21  8  1  0
 19 13  1  0
  1 26  1  0
  1 27  1  0
  1 28  1  0
  4 29  1  0
  9 30  1  0
  9 31  1  0
 10 32  1  0
 10 33  1  0
 11 34  1  0
 14 35  1  0
 15 36  1  0
 18 37  1  0
 19 38  1  0
 20 39  1  0
 20 40  1  0
 21 41  1  0
 21 42  1  0
 23 43  1  0
M  END
>  <meeko>  (2) 
{"is_sidechain": [false], "free_energy": -8.249, "intermolecular_energy": -9.737, "internal_energy": -0.772}

$$$$
ligand_41_conformer_2_docked
     RDKit          3D

 43 45  0  0  0  0  0  0  0  0999 V2000
   -3.6380   44.3140   53.8590 C   0  0  0  0  0  0  0  0  0  0  0  0
   -2.2000   44.3050   54.1040 N   0  0  0  0  0  0  0  0  0  0  0  0
   -1.6500   44.8040   55.1990 N   0  0  0  0  0  0  0  0  0  0  0  0
   -0.3160   44.6310   55.1090 C   0  0  0  0  0  0  0  0  0  0  0  0
   -0.0120   44.0010   53.9140 C   0  0  0  0  0  0  0  0  0  0  0  0
    1.3320   43.5840   53.4600 C   0  0  0  0  0  0  0  0  0  0  0  0
    1.6170   42.3580   53.4030 O   0  0  0  0  0  0  0  0  0  0  0  0
    2.3300   44.5600   53.1110 N   0  0  0  0  0  0  0  0  0  0  0  0
    2.0150   45.6750   52.2100 C   0  0  0  0  0  0  0  0  0  0  0  0
    2.8070   45.5220   50.9070 C   0  0  0  0  0  0  0  0  0  0  0  0
    4.3150   45.3400   51.1810 C   0  0  0  0  0  0  0  0  0  0  0  0
    4.8720   46.5260   51.7580 O   0  0  0  0  0  0  0  0  0  0  0  0
    6.1660   46.6530   52.2860 C   0  0  0  0  0  0  0  0  0  0  0  0
    6.2950   46.9500   53.6480 C   0  0  0  0  0  0  0  0  0  0  0  0
    7.5590   47.0890   54.2300 C   0  0  0  0  0  0  0  0  0  0  0  0
    8.7090   46.9290   53.4530 C   0  0  0  0  0  0  0  0  0  0  0  0
   10.2940   47.1040   54.1830 Cl  0  0  0  0  0  0  0  0  0  0  0  0
    8.5930   46.6270   52.0930 C   0  0  0  0  0  0  0  0  0  0  0  0
    7.3300   46.4870   51.5080 C   0  0  0  0  0  0  0  0  0  0  0  0
    4.5450   44.1590   52.1400 C   0  0  0  0  0  0  0  0  0  0  0  0
    3.7420   44.3280   53.4330 C   0  0  0  0  0  0  0  0  0  0  0  0
   -1.2390   43.8080   53.2930 C   0  0  0  0  0  0  0  0  0  0  0  0
   -1.4850   43.1440   51.9650 C   0  0  0  0  0  0  0  0  0  0  0  0
   -1.2570   41.7860   52.0760 F   0  0  0  0  0  0  0  0  0  0  0  0
   -0.6440   43.6800   51.0070 F   0  0  0  0  0  0  0  0  0  0  0  0
   -4.1736   44.3174   54.8198 H   0  0  0  0  0  0  0  0  0  0  0  0
   -3.9067   45.2138   53.2862 H   0  0  0  0  0  0  0  0  0  0  0  0
   -3.9180   43.4176   53.2862 H   0  0  0  0  0  0  0  0  0  0  0  0
    0.4174   44.9422   55.8675 H   0  0  0  0  0  0  0  0  0  0  0  0
    0.9380   45.6720   51.9864 H   0  0  0  0  0  0  0  0  0  0  0  0
    2.2877   46.6243   52.6941 H   0  0  0  0  0  0  0  0  0  0  0  0
    2.4336   44.6420   50.3628 H   0  0  0  0  0  0  0  0  0  0  0  0
    2.6719   46.4367   50.3111 H   0  0  0  0  0  0  0  0  0  0  0  0
    4.8113   45.1377   50.2204 H   0  0  0  0  0  0  0  0  0  0  0  0
    5.3938   47.0752   54.2661 H   0  0  0  0  0  0  0  0  0  0  0  0
    7.6479   47.3246   55.3008 H   0  0  0  0  0  0  0  0  0  0  0  0
    9.4979   46.4990   51.4808 H   0  0  0  0  0  0  0  0  0  0  0  0
    7.2448   46.2467   50.4380 H   0  0  0  0  0  0  0  0  0  0  0  0
    4.2332   43.2283   51.6435 H   0  0  0  0  0  0  0  0  0  0  0  0
    5.6139   44.1235   52.3971 H   0  0  0  0  0  0  0  0  0  0  0  0
    3.8332   43.4165   54.0419 H   0  0  0  0  0  0  0  0  0  0  0  0
    4.1336   45.1885   53.9953 H   0  0  0  0  0  0  0  0  0  0  0  0
   -2.5290   43.3159   51.6641 H   0  0  0  0  0  0  0  0  0  0  0  0
  1  2  1  0
  2  3  1  0
  3  4  2  0
  4  5  1  0
  5  6  1  0
  6  7  2  0
  6  8  1  0
  8  9  1  0
  9 10  1  0
 10 11  1  0
 11 12  1  0
 12 13  1  0
 13 14  2  0
 14 15  1  0
 15 16  2  0
 16 17  1  0
 16 18  1  0
 18 19  2  0
 11 20  1  0
 20 21  1  0
  5 22  2  0
 22 23  1  0
 23 24  1  0
 23 25  1  0
 22  2  1  0
 21  8  1  0
 19 13  1  0
  1 26  1  0
  1 27  1  0
  1 28  1  0
  4 29  1  0
  9 30  1  0
  9 31  1  0
 10 32  1  0
 10 33  1  0
 11 34  1  0
 14 35  1  0
 15 36  1  0
 18 37  1  0
 19 38  1  0
 20 39  1  0
 20 40  1  0
 21 41  1  0
 21 42  1  0
 23 43  1  0
M  END
>  <meeko>  (3) 
{"is_sidechain": [false], "free_energy": -8.239, "intermolecular_energy": -9.599, "internal_energy": -0.897}

$$$$
ligand_41_conformer_2_docked
     RDKit          3D

 43 45  0  0  0  0  0  0  0  0999 V2000
    8.8690   46.4240   52.6370 C   0  0  0  0  0  0  0  0  0  0  0  0
    7.6260   46.1050   51.9440 N   0  0  0  0  0  0  0  0  0  0  0  0
    7.5840   45.4310   50.8060 N   0  0  0  0  0  0  0  0  0  0  0  0
    6.2920   45.3070   50.4450 C   0  0  0  0  0  0  0  0  0  0  0  0
    5.4880   45.9250   51.3870 C   0  0  0  0  0  0  0  0  0  0  0  0
    4.0100   45.9680   51.3860 C   0  0  0  0  0  0  0  0  0  0  0  0
    3.4040   46.5240   50.4320 O   0  0  0  0  0  0  0  0  0  0  0  0
    3.2540   45.4100   52.4760 N   0  0  0  0  0  0  0  0  0  0  0  0
    3.5390   44.0620   52.9820 C   0  0  0  0  0  0  0  0  0  0  0  0
    2.3490   43.1410   52.6910 C   0  0  0  0  0  0  0  0  0  0  0  0
    1.0280   43.7440   53.2140 C   0  0  0  0  0  0  0  0  0  0  0  0
    1.0340   43.8180   54.6430 O   0  0  0  0  0  0  0  0  0  0  0  0
    0.0780   44.4700   55.4370 C   0  0  0  0  0  0  0  0  0  0  0  0
    0.5270   45.4270   56.3560 C   0  0  0  0  0  0  0  0  0  0  0  0
   -0.3800   46.1080   57.1740 C   0  0  0  0  0  0  0  0  0  0  0  0
   -1.7480   45.8410   57.0780 C   0  0  0  0  0  0  0  0  0  0  0  0
   -2.8840   46.6950   58.1040 Cl  0  0  0  0  0  0  0  0  0  0  0  0
   -2.2090   44.8910   56.1610 C   0  0  0  0  0  0  0  0  0  0  0  0
   -1.3040   44.2080   55.3420 C   0  0  0  0  0  0  0  0  0  0  0  0
    0.8200   45.1570   52.6390 C   0  0  0  0  0  0  0  0  0  0  0  0
    2.0210   46.0590   52.9360 C   0  0  0  0  0  0  0  0  0  0  0  0
    6.3720   46.4280   52.3330 C   0  0  0  0  0  0  0  0  0  0  0  0
    6.0210   47.1800   53.5880 C   0  0  0  0  0  0  0  0  0  0  0  0
    5.6780   46.2860   54.5840 F   0  0  0  0  0  0  0  0  0  0  0  0
    4.9610   48.0350   53.3450 F   0  0  0  0  0  0  0  0  0  0  0  0
    8.7042   46.3817   53.7238 H   0  0  0  0  0  0  0  0  0  0  0  0
    9.6434   45.6955   52.3550 H   0  0  0  0  0  0  0  0  0  0  0  0
    9.1969   47.4354   52.3550 H   0  0  0  0  0  0  0  0  0  0  0  0
    5.9317   44.7939   49.5412 H   0  0  0  0  0  0  0  0  0  0  0  0
    4.4375   43.6670   52.4854 H   0  0  0  0  0  0  0  0  0  0  0  0
    3.7083   44.1078   54.0679 H   0  0  0  0  0  0  0  0  0  0  0  0
    2.2689   42.9926   51.6040 H   0  0  0  0  0  0  0  0  0  0  0  0
    2.5192   42.1833   53.2046 H   0  0  0  0  0  0  0  0  0  0  0  0
    0.2066   43.0882   52.8896 H   0  0  0  0  0  0  0  0  0  0  0  0
    1.6023   45.6447   56.4349 H   0  0  0  0  0  0  0  0  0  0  0  0
   -0.0157   46.8553   57.8943 H   0  0  0  0  0  0  0  0  0  0  0  0
   -3.2859   44.6804   56.0837 H   0  0  0  0  0  0  0  0  0  0  0  0
   -1.6720   43.4634   54.6208 H   0  0  0  0  0  0  0  0  0  0  0  0
    0.6865   45.0848   51.5495 H   0  0  0  0  0  0  0  0  0  0  0  0
   -0.0708   45.5971   53.1111 H   0  0  0  0  0  0  0  0  0  0  0  0
    1.8958   47.0184   52.4126 H   0  0  0  0  0  0  0  0  0  0  0  0
    2.0849   46.2346   54.0200 H   0  0  0  0  0  0  0  0  0  0  0  0
    6.8920   47.7696   53.9101 H   0  0  0  0  0  0  0  0  0  0  0  0
  1  2  1  0
  2  3  1  0
  3  4  2  0
  4  5  1  0
  5  6  1  0
  6  7  2  0
  6  8  1  0
  8  9  1  0
  9 10  1  0
 10 11  1  0
 11 12  1  0
 12 13  1  0
 13 14  2  0
 14 15  1  0
 15 16  2  0
 16 17  1  0
 16 18  1  0
 18 19  2  0
 11 20  1  0
 20 21  1  0
  5 22  2  0
 22 23  1  0
 23 24  1  0
 23 25  1  0
 22  2  1  0
 21  8  1  0
 19 13  1  0
  1 26  1  0
  1 27  1  0
  1 28  1  0
  4 29  1  0
  9 30  1  0
  9 31  1  0
 10 32  1  0
 10 33  1  0
 11 34  1  0
 14 35  1  0
 15 36  1  0
 18 37  1  0
 19 38  1  0
 20 39  1  0
 20 40  1  0
 21 41  1  0
 21 42  1  0
 23 43  1  0
M  END
>  <meeko>  (4) 
{"is_sidechain": [false], "free_energy": -8.017, "intermolecular_energy": -9.375, "internal_energy": -0.847}

$$$$
ligand_41_conformer_2_docked
     RDKit          3D

 43 45  0  0  0  0  0  0  0  0999 V2000
   10.1000   47.2900   54.4020 C   0  0  0  0  0  0  0  0  0  0  0  0
    8.7040   46.9990   54.0960 N   0  0  0  0  0  0  0  0  0  0  0  0
    7.7290   47.1160   54.9830 N   0  0  0  0  0  0  0  0  0  0  0  0
    6.5740   46.7780   54.3760 C   0  0  0  0  0  0  0  0  0  0  0  0
    6.8270   46.4330   53.0600 C   0  0  0  0  0  0  0  0  0  0  0  0
    5.8230   46.0530   52.0440 C   0  0  0  0  0  0  0  0  0  0  0  0
    6.1930   45.7960   50.8670 O   0  0  0  0  0  0  0  0  0  0  0  0
    4.4230   46.0030   52.3710 N   0  0  0  0  0  0  0  0  0  0  0  0
    3.9510   45.3010   53.5710 C   0  0  0  0  0  0  0  0  0  0  0  0
    3.1150   44.0840   53.1600 C   0  0  0  0  0  0  0  0  0  0  0  0
    1.9920   44.4780   52.1780 C   0  0  0  0  0  0  0  0  0  0  0  0
    1.0320   45.3240   52.8180 O   0  0  0  0  0  0  0  0  0  0  0  0
    0.1870   44.9550   53.8760 C   0  0  0  0  0  0  0  0  0  0  0  0
    0.5540   45.3310   55.1740 C   0  0  0  0  0  0  0  0  0  0  0  0
   -0.2480   44.9910   56.2680 C   0  0  0  0  0  0  0  0  0  0  0  0
   -1.4300   44.2720   56.0730 C   0  0  0  0  0  0  0  0  0  0  0  0
   -2.4360   43.8460   57.4440 Cl  0  0  0  0  0  0  0  0  0  0  0  0
   -1.8100   43.8960   54.7810 C   0  0  0  0  0  0  0  0  0  0  0  0
   -1.0100   44.2340   53.6850 C   0  0  0  0  0  0  0  0  0  0  0  0
    2.5790   45.2140   50.9600 C   0  0  0  0  0  0  0  0  0  0  0  0
    3.4140   46.4230   51.3930 C   0  0  0  0  0  0  0  0  0  0  0  0
    8.2000   46.5830   52.9120 C   0  0  0  0  0  0  0  0  0  0  0  0
    9.0050   46.3540   51.6610 C   0  0  0  0  0  0  0  0  0  0  0  0
   10.0770   45.5300   51.9430 F   0  0  0  0  0  0  0  0  0  0  0  0
    9.4640   47.5630   51.1690 F   0  0  0  0  0  0  0  0  0  0  0  0
   10.2379   47.3188   55.4929 H   0  0  0  0  0  0  0  0  0  0  0  0
   10.7408   46.5061   53.9719 H   0  0  0  0  0  0  0  0  0  0  0  0
   10.3742   48.2646   53.9719 H   0  0  0  0  0  0  0  0  0  0  0  0
    5.5829   46.7766   54.8532 H   0  0  0  0  0  0  0  0  0  0  0  0
    4.8156   44.9678   54.1639 H   0  0  0  0  0  0  0  0  0  0  0  0
    3.3321   45.9826   54.1729 H   0  0  0  0  0  0  0  0  0  0  0  0
    3.7713   43.3460   52.6756 H   0  0  0  0  0  0  0  0  0  0  0  0
    2.6520   43.6610   54.0637 H   0  0  0  0  0  0  0  0  0  0  0  0
    1.4950   43.5545   51.8461 H   0  0  0  0  0  0  0  0  0  0  0  0
    1.4820   45.8993   55.3346 H   0  0  0  0  0  0  0  0  0  0  0  0
    0.0521   45.2900   57.2832 H   0  0  0  0  0  0  0  0  0  0  0  0
   -2.7417   43.3322   54.6261 H   0  0  0  0  0  0  0  0  0  0  0  0
   -1.3152   43.9367   52.6709 H   0  0  0  0  0  0  0  0  0  0  0  0
    3.2187   44.5198   50.3953 H   0  0  0  0  0  0  0  0  0  0  0  0
    1.7474   45.5709   50.3346 H   0  0  0  0  0  0  0  0  0  0  0  0
    3.9146   46.8552   50.5140 H   0  0  0  0  0  0  0  0  0  0  0  0
    2.7549   47.1756   51.8504 H   0  0  0  0  0  0  0  0  0  0  0  0
    8.3665   45.8756   50.9037 H   0  0  0  0  0  0  0  0  0  0  0  0
  1  2  1  0
  2  3  1  0
  3  4  2  0
  4  5  1  0
  5  6  1  0
  6  7  2  0
  6  8  1  0
  8  9  1  0
  9 10  1  0
 10 11  1  0
 11 12  1  0
 12 13  1  0
 13 14  2  0
 14 15  1  0
 15 16  2  0
 16 17  1  0
 16 18  1  0
 18 19  2  0
 11 20  1  0
 20 21  1  0
  5 22  2  0
 22 23  1  0
 23 24  1  0
 23 25  1  0
 22  2  1  0
 21  8  1  0
 19 13  1  0
  1 26  1  0
  1 27  1  0
  1 28  1  0
  4 29  1  0
  9 30  1  0
  9 31  1  0
 10 32  1  0
 10 33  1  0
 11 34  1  0
 14 35  1  0
 15 36  1  0
 18 37  1  0
 19 38  1  0
 20 39  1  0
 20 40  1  0
 21 41  1  0
 21 42  1  0
 23 43  1  0
M  END
>  <meeko>  (5) 
{"is_sidechain": [false], "free_energy": -7.935, "intermolecular_energy": -10.272, "internal_energy": 0.151}

$$$$
