ligand_30_conformer_2_docked
     RDKit          3D

 40 42  0  0  0  0  0  0  0  0999 V2000
   11.0480   47.3630   56.2100 C   0  0  0  0  0  0  0  0  0  0  0  0
   10.2770   46.9680   55.0830 O   0  0  0  0  0  0  0  0  0  0  0  0
    9.1140   47.6380   54.6870 C   0  0  0  0  0  0  0  0  0  0  0  0
    8.7650   48.6910   55.2890 O   0  0  0  0  0  0  0  0  0  0  0  0
    8.2660   47.1000   53.5930 C   0  0  0  0  0  0  0  0  0  0  0  0
    6.8670   47.1480   53.7470 C   0  0  0  0  0  0  0  0  0  0  0  0
    6.0190   46.6310   52.7680 C   0  0  0  0  0  0  0  0  0  0  0  0
    6.5470   46.0630   51.6040 C   0  0  0  0  0  0  0  0  0  0  0  0
    5.6340   45.4490   50.5800 C   0  0  0  0  0  0  0  0  0  0  0  0
    4.3330   45.1780   51.1800 N   0  0  0  0  0  0  0  0  0  0  0  0
    4.0220   44.1530   51.9900 C   0  0  0  0  0  0  0  0  0  0  0  0
    2.6650   44.2430   52.2100 C   0  0  0  0  0  0  0  0  0  0  0  0
    1.8190   43.2660   52.9600 C   0  0  0  0  0  0  0  0  0  0  0  0
    1.2150   43.9220   54.1130 N   0  0  0  0  0  0  0  0  0  0  0  0
    1.8730   44.5940   55.0750 C   0  0  0  0  0  0  0  0  0  0  0  0
    0.9430   45.1310   55.9380 C   0  0  0  0  0  0  0  0  0  0  0  0
   -0.2810   44.7470   55.4220 C   0  0  0  0  0  0  0  0  0  0  0  0
   -0.0910   44.0180   54.3060 N   0  0  0  0  0  0  0  0  0  0  0  0
    2.1870   45.2920   51.5100 N   0  0  0  0  0  0  0  0  0  0  0  0
    3.2240   45.8420   50.8930 N   0  0  0  0  0  0  0  0  0  0  0  0
    7.9360   46.0060   51.4350 C   0  0  0  0  0  0  0  0  0  0  0  0
    8.8060   46.5370   52.4050 C   0  0  0  0  0  0  0  0  0  0  0  0
   10.2880   46.4860   52.1410 C   0  0  0  0  0  0  0  0  0  0  0  0
   10.5151   47.0900   57.1327 H   0  0  0  0  0  0  0  0  0  0  0  0
   12.0223   46.8530   56.1847 H   0  0  0  0  0  0  0  0  0  0  0  0
   11.2033   48.4517   56.1847 H   0  0  0  0  0  0  0  0  0  0  0  0
    6.4368   47.6000   54.6529 H   0  0  0  0  0  0  0  0  0  0  0  0
    4.9292   46.6701   52.9120 H   0  0  0  0  0  0  0  0  0  0  0  0
    5.5099   46.1447   49.7370 H   0  0  0  0  0  0  0  0  0  0  0  0
    6.0723   44.5064   50.2202 H   0  0  0  0  0  0  0  0  0  0  0  0
    4.7100   43.3963   52.3950 H   0  0  0  0  0  0  0  0  0  0  0  0
    1.0263   42.8859   52.2989 H   0  0  0  0  0  0  0  0  0  0  0  0
    2.4460   42.4302   53.3038 H   0  0  0  0  0  0  0  0  0  0  0  0
    2.9650   44.6969   55.1582 H   0  0  0  0  0  0  0  0  0  0  0  0
    1.1325   45.7327   56.8391 H   0  0  0  0  0  0  0  0  0  0  0  0
   -1.2597   44.9985   55.8565 H   0  0  0  0  0  0  0  0  0  0  0  0
    8.3531   45.5392   50.5305 H   0  0  0  0  0  0  0  0  0  0  0  0
   10.8304   46.4673   53.0978 H   0  0  0  0  0  0  0  0  0  0  0  0
   10.5271   45.5791   51.5662 H   0  0  0  0  0  0  0  0  0  0  0  0
   10.5888   47.3743   51.5662 H   0  0  0  0  0  0  0  0  0  0  0  0
  1  2  1  0
  2  3  1  0
  3  4  2  0
  3  5  1  0
  5  6  2  0
  6  7  1  0
  7  8  2  0
  8  9  1  0
  9 10  1  0
 10 11  1  0
 11 12  2  0
 12 13  1  0
 13 14  1  0
 14 15  1  0
 15 16  2  0
 16 17  1  0
 17 18  2  0
 12 19  1  0
 19 20  2  0
  8 21  1  0
 21 22  2  0
 22 23  1  0
 22  5  1  0
 20 10  1  0
 18 14  1  0
  1 24  1  0
  1 25  1  0
  1 26  1  0
  6 27  1  0
  7 28  1  0
  9 29  1  0
  9 30  1  0
 11 31  1  0
 13 32  1  0
 13 33  1  0
 15 34  1  0
 16 35  1  0
 17 36  1  0
 21 37  1  0
 23 38  1  0
 23 39  1  0
 23 40  1  0
M  END
>  <meeko>  (1) 
{"is_sidechain": [false], "free_energy": -8.188, "intermolecular_energy": -11.061, "internal_energy": -0.074}

$$$$
ligand_30_conformer_2_docked
     RDKit          3D

 40 42  0  0  0  0  0  0  0  0999 V2000
   10.0340   47.1810   54.2160 C   0  0  0  0  0  0  0  0  0  0  0  0
    9.6390   47.1850   52.8500 O   0  0  0  0  0  0  0  0  0  0  0  0
    8.3360   47.4860   52.4390 C   0  0  0  0  0  0  0  0  0  0  0  0
    7.9780   48.6910   52.3300 O   0  0  0  0  0  0  0  0  0  0  0  0
    7.3580   46.4010   52.1690 C   0  0  0  0  0  0  0  0  0  0  0  0
    7.3160   45.8460   50.8760 C   0  0  0  0  0  0  0  0  0  0  0  0
    6.3980   44.8460   50.5540 C   0  0  0  0  0  0  0  0  0  0  0  0
    5.5070   44.3670   51.5190 C   0  0  0  0  0  0  0  0  0  0  0  0
    4.4770   43.3340   51.1520 C   0  0  0  0  0  0  0  0  0  0  0  0
    3.1810   43.7150   51.7010 N   0  0  0  0  0  0  0  0  0  0  0  0
    2.5120   43.0900   52.6840 C   0  0  0  0  0  0  0  0  0  0  0  0
    1.2980   43.7310   52.7820 C   0  0  0  0  0  0  0  0  0  0  0  0
    0.1530   43.3390   53.6570 C   0  0  0  0  0  0  0  0  0  0  0  0
    0.1210   44.1920   54.8390 N   0  0  0  0  0  0  0  0  0  0  0  0
   -0.9810   44.5620   55.5170 C   0  0  0  0  0  0  0  0  0  0  0  0
   -0.5850   45.2970   56.6140 C   0  0  0  0  0  0  0  0  0  0  0  0
    0.7950   45.3230   56.5420 C   0  0  0  0  0  0  0  0  0  0  0  0
    1.2030   44.6360   55.4570 N   0  0  0  0  0  0  0  0  0  0  0  0
    1.2490   44.7010   51.8440 N   0  0  0  0  0  0  0  0  0  0  0  0
    2.4080   44.6670   51.2020 N   0  0  0  0  0  0  0  0  0  0  0  0
    5.5350   44.9080   52.8100 C   0  0  0  0  0  0  0  0  0  0  0  0
    6.4640   45.9060   53.1570 C   0  0  0  0  0  0  0  0  0  0  0  0
    6.4720   46.4140   54.5760 C   0  0  0  0  0  0  0  0  0  0  0  0
    9.1396   47.1901   54.8563 H   0  0  0  0  0  0  0  0  0  0  0  0
   10.6249   46.2768   54.4242 H   0  0  0  0  0  0  0  0  0  0  0  0
   10.6431   48.0730   54.4242 H   0  0  0  0  0  0  0  0  0  0  0  0
    8.0170   46.2059   50.1085 H   0  0  0  0  0  0  0  0  0  0  0  0
    6.3751   44.4321   49.5351 H   0  0  0  0  0  0  0  0  0  0  0  0
    4.4037   43.2639   50.0567 H   0  0  0  0  0  0  0  0  0  0  0  0
    4.7754   42.3594   51.5656 H   0  0  0  0  0  0  0  0  0  0  0  0
    2.8627   42.2397   53.2873 H   0  0  0  0  0  0  0  0  0  0  0  0
   -0.7884   43.4521   53.0993 H   0  0  0  0  0  0  0  0  0  0  0  0
    0.2755   42.2911   53.9682 H   0  0  0  0  0  0  0  0  0  0  0  0
   -2.0185   44.3198   55.2432 H   0  0  0  0  0  0  0  0  0  0  0  0
   -1.2261   45.7606   57.3782 H   0  0  0  0  0  0  0  0  0  0  0  0
    1.4584   45.8271   57.2602 H   0  0  0  0  0  0  0  0  0  0  0  0
    4.8201   44.5474   53.5642 H   0  0  0  0  0  0  0  0  0  0  0  0
    6.4586   45.5613   55.2708 H   0  0  0  0  0  0  0  0  0  0  0  0
    7.3797   47.0116   54.7464 H   0  0  0  0  0  0  0  0  0  0  0  0
    5.5836   47.0399   54.7464 H   0  0  0  0  0  0  0  0  0  0  0  0
  1  2  1  0
  2  3  1  0
  3  4  2  0
  3  5  1  0
  5  6  2  0
  6  7  1  0
  7  8  2  0
  8  9  1  0
  9 10  1  0
 10 11  1  0
 11 12  2  0
 12 13  1  0
 13 14  1  0
 14 15  1  0
 15 16  2  0
 16 17  1  0
 17 18  2  0
 12 19  1  0
 19 20  2  0
  8 21  1  0
 21 22  2  0
 22 23  1  0
 22  5  1  0
 20 10  1  0
 18 14  1  0
  1 24  1  0
  1 25  1  0
  1 26  1  0
  6 27  1  0
  7 28  1  0
  9 29  1  0
  9 30  1  0
 11 31  1  0
 13 32  1  0
 13 33  1  0
 15 34  1  0
 16 35  1  0
 17 36  1  0
 21 37  1  0
 23 38  1  0
 23 39  1  0
 23 40  1  0
M  END
>  <meeko>  (2) 
{"is_sidechain": [false], "free_energy": -8.141, "intermolecular_energy": -10.473, "internal_energy": -0.598}

$$$$
ligand_30_conformer_2_docked
     RDKit          3D

 40 42  0  0  0  0  0  0  0  0999 V2000
   11.2020   47.6570   56.6880 C   0  0  0  0  0  0  0  0  0  0  0  0
   10.6520   47.1020   55.4990 O   0  0  0  0  0  0  0  0  0  0  0  0
    9.5400   47.6510   54.8510 C   0  0  0  0  0  0  0  0  0  0  0  0
    8.9820   48.6770   55.3280 O   0  0  0  0  0  0  0  0  0  0  0  0
    8.9860   47.0140   53.6280 C   0  0  0  0  0  0  0  0  0  0  0  0
    9.8580   46.7680   52.5500 C   0  0  0  0  0  0  0  0  0  0  0  0
    9.3910   46.2010   51.3650 C   0  0  0  0  0  0  0  0  0  0  0  0
    8.0430   45.8540   51.2310 C   0  0  0  0  0  0  0  0  0  0  0  0
    7.5290   45.3020   49.9300 C   0  0  0  0  0  0  0  0  0  0  0  0
    6.5600   44.2440   50.1920 N   0  0  0  0  0  0  0  0  0  0  0  0
    5.4320   44.3520   50.9120 C   0  0  0  0  0  0  0  0  0  0  0  0
    4.9050   43.0820   50.9830 C   0  0  0  0  0  0  0  0  0  0  0  0
    3.7080   42.6580   51.7680 C   0  0  0  0  0  0  0  0  0  0  0  0
    2.9310   43.8290   52.1550 N   0  0  0  0  0  0  0  0  0  0  0  0
    2.0780   44.5080   51.3670 C   0  0  0  0  0  0  0  0  0  0  0  0
    1.4840   45.4940   52.1230 C   0  0  0  0  0  0  0  0  0  0  0  0
    2.0260   45.3450   53.3860 C   0  0  0  0  0  0  0  0  0  0  0  0
    2.8990   44.3200   53.3840 N   0  0  0  0  0  0  0  0  0  0  0  0
    5.7350   42.2380   50.3350 N   0  0  0  0  0  0  0  0  0  0  0  0
    6.7330   42.9730   49.8650 N   0  0  0  0  0  0  0  0  0  0  0  0
    7.1620   46.0920   52.2930 C   0  0  0  0  0  0  0  0  0  0  0  0
    7.6190   46.6490   53.5020 C   0  0  0  0  0  0  0  0  0  0  0  0
    6.6290   46.8360   54.6220 C   0  0  0  0  0  0  0  0  0  0  0  0
   10.7337   47.1844   57.5640 H   0  0  0  0  0  0  0  0  0  0  0  0
   12.2867   47.4756   56.7096 H   0  0  0  0  0  0  0  0  0  0  0  0
   11.0108   48.7400   56.7096 H   0  0  0  0  0  0  0  0  0  0  0  0
   10.9229   47.0269   52.6442 H   0  0  0  0  0  0  0  0  0  0  0  0
   10.0866   46.0257   50.5311 H   0  0  0  0  0  0  0  0  0  0  0  0
    7.0452   46.1069   49.3573 H   0  0  0  0  0  0  0  0  0  0  0  0
    8.3696   44.8903   49.3522 H   0  0  0  0  0  0  0  0  0  0  0  0
    5.0141   45.2681   51.3548 H   0  0  0  0  0  0  0  0  0  0  0  0
    3.0844   41.9931   51.1524 H   0  0  0  0  0  0  0  0  0  0  0  0
    4.0369   42.1253   52.6725 H   0  0  0  0  0  0  0  0  0  0  0  0
    1.8877   44.3097   50.3019 H   0  0  0  0  0  0  0  0  0  0  0  0
    0.7419   46.2365   51.7943 H   0  0  0  0  0  0  0  0  0  0  0  0
    1.7815   45.9683   54.2588 H   0  0  0  0  0  0  0  0  0  0  0  0
    6.0972   45.8399   52.1807 H   0  0  0  0  0  0  0  0  0  0  0  0
    7.1457   46.7384   55.5882 H   0  0  0  0  0  0  0  0  0  0  0  0
    6.1759   47.8356   54.5478 H   0  0  0  0  0  0  0  0  0  0  0  0
    5.8425   46.0705   54.5478 H   0  0  0  0  0  0  0  0  0  0  0  0
  1  2  1  0
  2  3  1  0
  3  4  2  0
  3  5  1  0
  5  6  2  0
  6  7  1  0
  7  8  2  0
  8  9  1  0
  9 10  1  0
 10 11  1  0
 11 12  2  0
 12 13  1  0
 13 14  1  0
 14 15  1  0
 15 16  2  0
 16 17  1  0
 17 18  2  0
 12 19  1  0
 19 20  2  0
  8 21  1  0
 21 22  2  0
 22 23  1  0
 22  5  1  0
 20 10  1  0
 18 14  1  0
  1 24  1  0
  1 25  1  0
  1 26  1  0
  6 27  1  0
  7 28  1  0
  9 29  1  0
  9 30  1  0
 11 31  1  0
 13 32  1  0
 13 33  1  0
 15 34  1  0
 16 35  1  0
 17 36  1  0
 21 37  1  0
 23 38  1  0
 23 39  1  0
 23 40  1  0
M  END
>  <meeko>  (3) 
{"is_sidechain": [false], "free_energy": -8.111, "intermolecular_energy": -11.551, "internal_energy": 0.521}

$$$$
ligand_30_conformer_2_docked
     RDKit          3D

 40 42  0  0  0  0  0  0  0  0999 V2000
    9.9700   47.1900   54.1220 C   0  0  0  0  0  0  0  0  0  0  0  0
    9.5220   47.2350   52.7730 O   0  0  0  0  0  0  0  0  0  0  0  0
    8.1950   47.5070   52.4250 C   0  0  0  0  0  0  0  0  0  0  0  0
    7.7990   48.7040   52.3560 O   0  0  0  0  0  0  0  0  0  0  0  0
    7.2370   46.4000   52.1740 C   0  0  0  0  0  0  0  0  0  0  0  0
    7.1820   45.8440   50.8810 C   0  0  0  0  0  0  0  0  0  0  0  0
    6.2810   44.8240   50.5770 C   0  0  0  0  0  0  0  0  0  0  0  0
    5.4200   44.3250   51.5600 C   0  0  0  0  0  0  0  0  0  0  0  0
    4.4060   43.2700   51.2130 C   0  0  0  0  0  0  0  0  0  0  0  0
    3.1060   43.6360   51.7610 N   0  0  0  0  0  0  0  0  0  0  0  0
    2.4740   43.0430   52.7870 C   0  0  0  0  0  0  0  0  0  0  0  0
    1.2400   43.6480   52.8710 C   0  0  0  0  0  0  0  0  0  0  0  0
    0.1220   43.2660   53.7850 C   0  0  0  0  0  0  0  0  0  0  0  0
   -1.0980   43.0610   53.0140 N   0  0  0  0  0  0  0  0  0  0  0  0
   -2.1380   43.9120   52.9370 C   0  0  0  0  0  0  0  0  0  0  0  0
   -3.0530   43.3960   52.0470 C   0  0  0  0  0  0  0  0  0  0  0  0
   -2.4880   42.2140   51.6050 C   0  0  0  0  0  0  0  0  0  0  0  0
   -1.2940   42.0350   52.2020 N   0  0  0  0  0  0  0  0  0  0  0  0
    1.1430   44.5630   51.8830 N   0  0  0  0  0  0  0  0  0  0  0  0
    2.2930   44.5330   51.2250 N   0  0  0  0  0  0  0  0  0  0  0  0
    5.4600   44.8670   52.8500 C   0  0  0  0  0  0  0  0  0  0  0  0
    6.3730   45.8860   53.1790 C   0  0  0  0  0  0  0  0  0  0  0  0
    6.3980   46.3940   54.5970 C   0  0  0  0  0  0  0  0  0  0  0  0
    9.1067   47.2767   54.7981 H   0  0  0  0  0  0  0  0  0  0  0  0
   10.4851   46.2356   54.3056 H   0  0  0  0  0  0  0  0  0  0  0  0
   10.6647   48.0229   54.3056 H   0  0  0  0  0  0  0  0  0  0  0  0
    7.8594   46.2197   50.1000 H   0  0  0  0  0  0  0  0  0  0  0  0
    6.2472   44.4096   49.5586 H   0  0  0  0  0  0  0  0  0  0  0  0
    4.3297   43.1824   50.1191 H   0  0  0  0  0  0  0  0  0  0  0  0
    4.7225   42.3072   51.6406 H   0  0  0  0  0  0  0  0  0  0  0  0
    2.8626   42.2386   53.4288 H   0  0  0  0  0  0  0  0  0  0  0  0
    0.3821   42.3357   54.3112 H   0  0  0  0  0  0  0  0  0  0  0  0
   -0.0412   44.0719   54.5157 H   0  0  0  0  0  0  0  0  0  0  0  0
   -2.2395   44.8574   53.4901 H   0  0  0  0  0  0  0  0  0  0  0  0
   -4.0204   43.8288   51.7525 H   0  0  0  0  0  0  0  0  0  0  0  0
   -2.9435   41.5258   50.8778 H   0  0  0  0  0  0  0  0  0  0  0  0
    4.7677   44.4909   53.6177 H   0  0  0  0  0  0  0  0  0  0  0  0
    6.3561   45.5426   55.2923 H   0  0  0  0  0  0  0  0  0  0  0  0
    7.3251   46.9610   54.7671 H   0  0  0  0  0  0  0  0  0  0  0  0
    5.5310   47.0493   54.7671 H   0  0  0  0  0  0  0  0  0  0  0  0
  1  2  1  0
  2  3  1  0
  3  4  2  0
  3  5  1  0
  5  6  2  0
  6  7  1  0
  7  8  2  0
  8  9  1  0
  9 10  1  0
 10 11  1  0
 11 12  2  0
 12 13  1  0
 13 14  1  0
 14 15  1  0
 15 16  2  0
 16 17  1  0
 17 18  2  0
 12 19  1  0
 19 20  2  0
  8 21  1  0
 21 22  2  0
 22 23  1  0
 22  5  1  0
 20 10  1  0
 18 14  1  0
  1 24  1  0
  1 25  1  0
  1 26  1  0
  6 27  1  0
  7 28  1  0
  9 29  1  0
  9 30  1  0
 11 31  1  0
 13 32  1  0
 13 33  1  0
 15 34  1  0
 16 35  1  0
 17 36  1  0
 21 37  1  0
 23 38  1  0
 23 39  1  0
 23 40  1  0
M  END
>  <meeko>  (4) 
{"is_sidechain": [false], "free_energy": -7.735, "intermolecular_energy": -9.939, "internal_energy": -0.583}

$$$$
ligand_30_conformer_2_docked
     RDKit          3D

 40 42  0  0  0  0  0  0  0  0999 V2000
    9.8700   46.4080   53.4960 C   0  0  0  0  0  0  0  0  0  0  0  0
    8.4590   46.4560   53.6670 O   0  0  0  0  0  0  0  0  0  0  0  0
    7.6360   47.3140   52.9290 C   0  0  0  0  0  0  0  0  0  0  0  0
    7.9720   48.5200   52.7690 O   0  0  0  0  0  0  0  0  0  0  0  0
    6.3490   46.8280   52.3660 C   0  0  0  0  0  0  0  0  0  0  0  0
    5.1520   47.2460   52.9770 C   0  0  0  0  0  0  0  0  0  0  0  0
    3.9150   46.8000   52.5130 C   0  0  0  0  0  0  0  0  0  0  0  0
    3.8420   45.9330   51.4180 C   0  0  0  0  0  0  0  0  0  0  0  0
    2.5120   45.4020   50.9600 C   0  0  0  0  0  0  0  0  0  0  0  0
    1.8570   44.7010   52.0580 N   0  0  0  0  0  0  0  0  0  0  0  0
    0.7020   45.0440   52.6520 C   0  0  0  0  0  0  0  0  0  0  0  0
    0.5410   44.1660   53.7000 C   0  0  0  0  0  0  0  0  0  0  0  0
   -0.5380   44.2020   54.7330 C   0  0  0  0  0  0  0  0  0  0  0  0
   -0.1560   45.1030   55.8140 N   0  0  0  0  0  0  0  0  0  0  0  0
   -0.9980   45.8230   56.5780 C   0  0  0  0  0  0  0  0  0  0  0  0
   -0.2560   46.4800   57.5350 C   0  0  0  0  0  0  0  0  0  0  0  0
    1.0500   46.0970   57.2940 C   0  0  0  0  0  0  0  0  0  0  0  0
    1.0860   45.2510   56.2460 N   0  0  0  0  0  0  0  0  0  0  0  0
    1.6070   43.3390   53.7340 N   0  0  0  0  0  0  0  0  0  0  0  0
    2.3900   43.6890   52.7240 N   0  0  0  0  0  0  0  0  0  0  0  0
    5.0230   45.5060   50.7990 C   0  0  0  0  0  0  0  0  0  0  0  0
    6.2790   45.9590   51.2440 C   0  0  0  0  0  0  0  0  0  0  0  0
    7.5080   45.4980   50.5040 C   0  0  0  0  0  0  0  0  0  0  0  0
   10.3584   46.3914   54.4815 H   0  0  0  0  0  0  0  0  0  0  0  0
   10.1409   45.5001   52.9371 H   0  0  0  0  0  0  0  0  0  0  0  0
   10.2020   47.2954   52.9371 H   0  0  0  0  0  0  0  0  0  0  0  0
    5.1929   47.9350   53.8335 H   0  0  0  0  0  0  0  0  0  0  0  0
    2.9919   47.1318   53.0107 H   0  0  0  0  0  0  0  0  0  0  0  0
    1.8782   46.2386   50.6308 H   0  0  0  0  0  0  0  0  0  0  0  0
    2.6672   44.7042   50.1240 H   0  0  0  0  0  0  0  0  0  0  0  0
    0.0237   45.8595   52.3606 H   0  0  0  0  0  0  0  0  0  0  0  0
   -1.4719   44.5580   54.2735 H   0  0  0  0  0  0  0  0  0  0  0  0
   -0.6870   43.1904   55.1385 H   0  0  0  0  0  0  0  0  0  0  0  0
   -2.0902   45.8775   56.4589 H   0  0  0  0  0  0  0  0  0  0  0  0
   -0.6223   47.1597   58.3184 H   0  0  0  0  0  0  0  0  0  0  0  0
    1.9257   46.4316   57.8695 H   0  0  0  0  0  0  0  0  0  0  0  0
    4.9684   44.8060   49.9522 H   0  0  0  0  0  0  0  0  0  0  0  0
    8.2839   45.2070   51.2274 H   0  0  0  0  0  0  0  0  0  0  0  0
    7.2532   44.6343   49.8722 H   0  0  0  0  0  0  0  0  0  0  0  0
    7.8841   46.3162   49.8722 H   0  0  0  0  0  0  0  0  0  0  0  0
  1  2  1  0
  2  3  1  0
  3  4  2  0
  3  5  1  0
  5  6  2  0
  6  7  1  0
  7  8  2  0
  8  9  1  0
  9 10  1  0
 10 11  1  0
 11 12  2  0
 12 13  1  0
 13 14  1  0
 14 15  1  0
 15 16  2  0
 16 17  1  0
 17 18  2  0
 12 19  1  0
 19 20  2  0
  8 21  1  0
 21 22  2  0
 22 23  1  0
 22  5  1  0
 20 10  1  0
 18 14  1  0
  1 24  1  0
  1 25  1  0
  1 26  1  0
  6 27  1  0
  7 28  1  0
  9 29  1  0
  9 30  1  0
 11 31  1  0
 13 32  1  0
 13 33  1  0
 15 34  1  0
 16 35  1  0
 17 36  1  0
 21 37  1  0
 23 38  1  0
 23 39  1  0
 23 40  1  0
M  END
>  <meeko>  (5) 
{"is_sidechain": [false], "free_energy": -7.671, "intermolecular_energy": -9.868, "internal_energy": -0.568}

$$$$
