ligand_58_conformer_3_docked
     RDKit          3D

 45 48  0  0  0  0  0  0  0  0999 V2000
    2.3750   45.1610   50.8300 O   0  0  0  0  0  0  0  0  0  0  0  0
    3.1190   45.1770   51.8490 C   0  0  0  0  0  0  0  0  0  0  0  0
    2.4990   45.2570   53.1910 C   0  0  0  0  0  0  0  0  0  0  0  0
    3.2640   45.7020   54.2980 C   0  0  0  0  0  0  0  0  0  0  0  0
    2.6940   45.7730   55.5800 C   0  0  0  0  0  0  0  0  0  0  0  0
    1.3680   45.3860   55.7310 C   0  0  0  0  0  0  0  0  0  0  0  0
    0.4330   45.3590   57.1220 S   0  0  0  0  0  0  0  0  0  0  0  0
   -0.9210   44.7650   56.2960 C   0  0  0  0  0  0  0  0  0  0  0  0
   -0.6680   44.5870   54.9760 N   0  0  0  0  0  0  0  0  0  0  0  0
    0.6070   44.9370   54.6680 C   0  0  0  0  0  0  0  0  0  0  0  0
    1.1580   44.8590   53.3880 C   0  0  0  0  0  0  0  0  0  0  0  0
    4.5480   45.1380   51.6770 N   0  0  0  0  0  0  0  0  0  0  0  0
    5.1390   45.7780   50.4960 C   0  0  0  0  0  0  0  0  0  0  0  0
    6.6750   45.6970   50.5140 C   0  0  0  0  0  0  0  0  0  0  0  0
    7.2530   45.9770   51.9320 C   0  0  0  0  0  0  0  0  0  0  0  0
    6.9020   47.4470   52.3570 C   0  0  0  0  0  0  0  0  0  0  0  0
    8.0110   48.1780   53.1440 C   0  0  0  0  0  0  0  0  0  0  0  0
    8.8250   47.2240   54.0270 C   0  0  0  0  0  0  0  0  0  0  0  0
    9.8030   47.9460   54.7320 O   0  0  0  0  0  0  0  0  0  0  0  0
    9.5120   46.1260   53.1870 C   0  0  0  0  0  0  0  0  0  0  0  0
    8.7980   45.8230   51.8520 C   0  0  0  0  0  0  0  0  0  0  0  0
    6.6650   44.9370   52.9550 C   0  0  0  0  0  0  0  0  0  0  0  0
    5.3750   44.2380   52.4900 C   0  0  0  0  0  0  0  0  0  0  0  0
    4.3143   45.9946   54.1519 H   0  0  0  0  0  0  0  0  0  0  0  0
    3.2813   46.1253   56.4408 H   0  0  0  0  0  0  0  0  0  0  0  0
   -1.8886   44.5497   56.7728 H   0  0  0  0  0  0  0  0  0  0  0  0
    0.5559   44.4924   52.5436 H   0  0  0  0  0  0  0  0  0  0  0  0
    4.7659   45.2731   49.5927 H   0  0  0  0  0  0  0  0  0  0  0  0
    4.8515   46.8397   50.5013 H   0  0  0  0  0  0  0  0  0  0  0  0
    6.9820   44.6893   50.1972 H   0  0  0  0  0  0  0  0  0  0  0  0
    7.0655   46.4636   49.8285 H   0  0  0  0  0  0  0  0  0  0  0  0
    6.6919   48.0255   51.4453 H   0  0  0  0  0  0  0  0  0  0  0  0
    6.0388   47.3746   53.0350 H   0  0  0  0  0  0  0  0  0  0  0  0
    8.6906   48.6640   52.4285 H   0  0  0  0  0  0  0  0  0  0  0  0
    7.5265   48.9142   53.8023 H   0  0  0  0  0  0  0  0  0  0  0  0
    8.1307   46.7410   54.7303 H   0  0  0  0  0  0  0  0  0  0  0  0
    9.5900   47.8550   55.6970 H   0  0  0  0  0  0  0  0  0  0  0  0
   10.5390   46.4513   52.9647 H   0  0  0  0  0  0  0  0  0  0  0  0
    9.4821   45.2018   53.7827 H   0  0  0  0  0  0  0  0  0  0  0  0
    9.1788   46.5160   51.0873 H   0  0  0  0  0  0  0  0  0  0  0  0
    9.0081   44.7728   51.6012 H   0  0  0  0  0  0  0  0  0  0  0  0
    7.4274   44.1649   53.1354 H   0  0  0  0  0  0  0  0  0  0  0  0
    6.4024   45.5048   53.8598 H   0  0  0  0  0  0  0  0  0  0  0  0
    5.6413   43.3553   51.8901 H   0  0  0  0  0  0  0  0  0  0  0  0
    4.7985   43.9427   53.3791 H   0  0  0  0  0  0  0  0  0  0  0  0
  1  2  2  0
  2  3  1  0
  3  4  2  0
  4  5  1  0
  5  6  2  0
  6  7  1  0
  7  8  1  0
  8  9  2  0
  9 10  1  0
 10 11  2  0
  2 12  1  0
 12 13  1  0
 13 14  1  0
 14 15  1  0
 15 16  1  0
 16 17  1  0
 17 18  1  0
 18 19  1  0
 18 20  1  0
 20 21  1  0
 15 22  1  0
 22 23  1  0
 11  3  1  0
 23 12  1  0
 10  6  1  0
 21 15  1  0
  4 24  1  0
  5 25  1  0
  8 26  1  0
 11 27  1  0
 13 28  1  0
 13 29  1  0
 14 30  1  0
 14 31  1  0
 16 32  1  0
 16 33  1  0
 17 34  1  0
 17 35  1  0
 18 36  1  0
 19 37  1  0
 20 38  1  0
 20 39  1  0
 21 40  1  0
 21 41  1  0
 22 42  1  0
 22 43  1  0
 23 44  1  0
 23 45  1  0
M  END
>  <meeko>  (1) 
{"is_sidechain": [false], "free_energy": -8.039, "intermolecular_energy": -8.743, "internal_energy": -0.075}

$$$$
ligand_58_conformer_3_docked
     RDKit          3D

 45 48  0  0  0  0  0  0  0  0999 V2000
    2.8080   44.6500   54.4720 O   0  0  0  0  0  0  0  0  0  0  0  0
    3.6040   44.7260   53.4970 C   0  0  0  0  0  0  0  0  0  0  0  0
    3.5350   43.7010   52.4300 C   0  0  0  0  0  0  0  0  0  0  0  0
    2.3070   43.0520   52.1500 C   0  0  0  0  0  0  0  0  0  0  0  0
    2.2270   42.0700   51.1490 C   0  0  0  0  0  0  0  0  0  0  0  0
    3.3860   41.7490   50.4520 C   0  0  0  0  0  0  0  0  0  0  0  0
    3.5960   40.6280   49.2230 S   0  0  0  0  0  0  0  0  0  0  0  0
    5.2480   40.9760   49.0810 C   0  0  0  0  0  0  0  0  0  0  0  0
    5.6390   41.9320   49.9580 N   0  0  0  0  0  0  0  0  0  0  0  0
    4.5980   42.3600   50.7170 C   0  0  0  0  0  0  0  0  0  0  0  0
    4.6940   43.3360   51.7090 C   0  0  0  0  0  0  0  0  0  0  0  0
    4.5710   45.7930   53.4590 N   0  0  0  0  0  0  0  0  0  0  0  0
    5.1240   46.2950   54.7220 C   0  0  0  0  0  0  0  0  0  0  0  0
    6.1860   47.3820   54.4850 C   0  0  0  0  0  0  0  0  0  0  0  0
    7.1310   47.0210   53.3020 C   0  0  0  0  0  0  0  0  0  0  0  0
    7.9310   45.7160   53.6530 C   0  0  0  0  0  0  0  0  0  0  0  0
    9.3960   45.7030   53.1700 C   0  0  0  0  0  0  0  0  0  0  0  0
    9.5840   46.4700   51.8540 C   0  0  0  0  0  0  0  0  0  0  0  0
   10.9290   46.4080   51.4540 O   0  0  0  0  0  0  0  0  0  0  0  0
    9.1660   47.9490   51.9990 C   0  0  0  0  0  0  0  0  0  0  0  0
    8.1280   48.1980   53.1150 C   0  0  0  0  0  0  0  0  0  0  0  0
    6.2820   46.8280   51.9910 C   0  0  0  0  0  0  0  0  0  0  0  0
    4.7840   46.5650   52.2290 C   0  0  0  0  0  0  0  0  0  0  0  0
    1.4068   43.3200   52.7226 H   0  0  0  0  0  0  0  0  0  0  0  0
    1.2741   41.5691   50.9230 H   0  0  0  0  0  0  0  0  0  0  0  0
    5.9219   40.4851   48.3634 H   0  0  0  0  0  0  0  0  0  0  0  0
    5.6597   43.8154   51.9272 H   0  0  0  0  0  0  0  0  0  0  0  0
    4.3077   46.7194   55.3250 H   0  0  0  0  0  0  0  0  0  0  0  0
    5.6039   45.4545   55.2447 H   0  0  0  0  0  0  0  0  0  0  0  0
    5.6789   48.3314   54.2583 H   0  0  0  0  0  0  0  0  0  0  0  0
    6.7967   47.4668   55.3960 H   0  0  0  0  0  0  0  0  0  0  0  0
    7.9307   45.5987   54.7467 H   0  0  0  0  0  0  0  0  0  0  0  0
    7.4252   44.8930   53.1269 H   0  0  0  0  0  0  0  0  0  0  0  0
   10.0270   46.1667   53.9426 H   0  0  0  0  0  0  0  0  0  0  0  0
    9.6816   44.6557   52.9920 H   0  0  0  0  0  0  0  0  0  0  0  0
    8.9418   45.9987   51.0954 H   0  0  0  0  0  0  0  0  0  0  0  0
   11.4780   46.6350   52.2500 H   0  0  0  0  0  0  0  0  0  0  0  0
   10.0646   48.5428   52.2227 H   0  0  0  0  0  0  0  0  0  0  0  0
    8.6923   48.2420   51.0504 H   0  0  0  0  0  0  0  0  0  0  0  0
    8.6648   48.3545   54.0623 H   0  0  0  0  0  0  0  0  0  0  0  0
    7.5393   49.0795   52.8211 H   0  0  0  0  0  0  0  0  0  0  0  0
    6.3777   47.7398   51.3832 H   0  0  0  0  0  0  0  0  0  0  0  0
    6.6797   45.9322   51.4917 H   0  0  0  0  0  0  0  0  0  0  0  0
    4.2594   47.5281   52.3142 H   0  0  0  0  0  0  0  0  0  0  0  0
    4.3925   45.9846   51.3805 H   0  0  0  0  0  0  0  0  0  0  0  0
  1  2  2  0
  2  3  1  0
  3  4  2  0
  4  5  1  0
  5  6  2  0
  6  7  1  0
  7  8  1  0
  8  9  2  0
  9 10  1  0
 10 11  2  0
  2 12  1  0
 12 13  1  0
 13 14  1  0
 14 15  1  0
 15 16  1  0
 16 17  1  0
 17 18  1  0
 18 19  1  0
 18 20  1  0
 20 21  1  0
 15 22  1  0
 22 23  1  0
 11  3  1  0
 23 12  1  0
 10  6  1  0
 21 15  1  0
  4 24  1  0
  5 25  1  0
  8 26  1  0
 11 27  1  0
 13 28  1  0
 13 29  1  0
 14 30  1  0
 14 31  1  0
 16 32  1  0
 16 33  1  0
 17 34  1  0
 17 35  1  0
 18 36  1  0
 19 37  1  0
 20 38  1  0
 20 39  1  0
 21 40  1  0
 21 41  1  0
 22 42  1  0
 22 43  1  0
 23 44  1  0
 23 45  1  0
M  END
>  <meeko>  (2) 
{"is_sidechain": [false], "free_energy": -7.831, "intermolecular_energy": -8.335, "internal_energy": -0.258}

$$$$
ligand_58_conformer_3_docked
     RDKit          3D

 45 48  0  0  0  0  0  0  0  0999 V2000
    5.0210   42.8140   50.4350 O   0  0  0  0  0  0  0  0  0  0  0  0
    4.5050   43.7000   51.1680 C   0  0  0  0  0  0  0  0  0  0  0  0
    5.3900   44.5630   51.9850 C   0  0  0  0  0  0  0  0  0  0  0  0
    5.2310   44.6100   53.3920 C   0  0  0  0  0  0  0  0  0  0  0  0
    6.0540   45.4300   54.1800 C   0  0  0  0  0  0  0  0  0  0  0  0
    7.0180   46.2000   53.5400 C   0  0  0  0  0  0  0  0  0  0  0  0
    8.1270   47.2650   54.2080 S   0  0  0  0  0  0  0  0  0  0  0  0
    8.7770   47.6610   52.6950 C   0  0  0  0  0  0  0  0  0  0  0  0
    8.1590   46.9940   51.6910 N   0  0  0  0  0  0  0  0  0  0  0  0
    7.1820   46.1810   52.1670 C   0  0  0  0  0  0  0  0  0  0  0  0
    6.3720   45.3710   51.3700 C   0  0  0  0  0  0  0  0  0  0  0  0
    3.0720   43.8370   51.2070 N   0  0  0  0  0  0  0  0  0  0  0  0
    2.2410   42.6380   51.0460 C   0  0  0  0  0  0  0  0  0  0  0  0
    0.7440   42.9620   51.1820 C   0  0  0  0  0  0  0  0  0  0  0  0
    0.4700   43.9580   52.3460 C   0  0  0  0  0  0  0  0  0  0  0  0
    0.8850   43.2940   53.7080 C   0  0  0  0  0  0  0  0  0  0  0  0
   -0.0450   43.6170   54.8970 C   0  0  0  0  0  0  0  0  0  0  0  0
   -0.6470   45.0250   54.8020 C   0  0  0  0  0  0  0  0  0  0  0  0
   -1.4650   45.2700   55.9180 O   0  0  0  0  0  0  0  0  0  0  0  0
   -1.4800   45.1970   53.5150 C   0  0  0  0  0  0  0  0  0  0  0  0
   -1.0560   44.2560   52.3660 C   0  0  0  0  0  0  0  0  0  0  0  0
    1.2700   45.2890   52.1000 C   0  0  0  0  0  0  0  0  0  0  0  0
    2.4440   45.1590   51.1120 C   0  0  0  0  0  0  0  0  0  0  0  0
    4.4540   43.9971   53.8723 H   0  0  0  0  0  0  0  0  0  0  0  0
    5.9392   45.4622   55.2735 H   0  0  0  0  0  0  0  0  0  0  0  0
    9.6014   48.3737   52.5457 H   0  0  0  0  0  0  0  0  0  0  0  0
    6.4966   45.3618   50.2771 H   0  0  0  0  0  0  0  0  0  0  0  0
    2.4239   42.2085   50.0500 H   0  0  0  0  0  0  0  0  0  0  0  0
    2.5111   41.9243   51.8383 H   0  0  0  0  0  0  0  0  0  0  0  0
    0.3897   43.4083   50.2411 H   0  0  0  0  0  0  0  0  0  0  0  0
    0.2107   42.0253   51.4017 H   0  0  0  0  0  0  0  0  0  0  0  0
    0.8943   42.2030   53.5677 H   0  0  0  0  0  0  0  0  0  0  0  0
    1.8712   43.7076   53.9657 H   0  0  0  0  0  0  0  0  0  0  0  0
   -0.8640   42.8829   54.9146 H   0  0  0  0  0  0  0  0  0  0  0  0
    0.5571   43.5707   55.8164 H   0  0  0  0  0  0  0  0  0  0  0  0
    0.1844   45.7449   54.7771 H   0  0  0  0  0  0  0  0  0  0  0  0
   -2.3600   45.5220   55.5700 H   0  0  0  0  0  0  0  0  0  0  0  0
   -2.5346   44.9970   53.7555 H   0  0  0  0  0  0  0  0  0  0  0  0
   -1.3156   46.2260   53.1628 H   0  0  0  0  0  0  0  0  0  0  0  0
   -1.5961   43.3042   52.4770 H   0  0  0  0  0  0  0  0  0  0  0  0
   -1.3010   44.7642   51.4217 H   0  0  0  0  0  0  0  0  0  0  0  0
    0.5712   46.0412   51.7052 H   0  0  0  0  0  0  0  0  0  0  0  0
    1.7079   45.5726   53.0684 H   0  0  0  0  0  0  0  0  0  0  0  0
    2.0695   45.3058   50.0882 H   0  0  0  0  0  0  0  0  0  0  0  0
    3.1965   45.9213   51.3623 H   0  0  0  0  0  0  0  0  0  0  0  0
  1  2  2  0
  2  3  1  0
  3  4  2  0
  4  5  1  0
  5  6  2  0
  6  7  1  0
  7  8  1  0
  8  9  2  0
  9 10  1  0
 10 11  2  0
  2 12  1  0
 12 13  1  0
 13 14  1  0
 14 15  1  0
 15 16  1  0
 16 17  1  0
 17 18  1  0
 18 19  1  0
 18 20  1  0
 20 21  1  0
 15 22  1  0
 22 23  1  0
 11  3  1  0
 23 12  1  0
 10  6  1  0
 21 15  1  0
  4 24  1  0
  5 25  1  0
  8 26  1  0
 11 27  1  0
 13 28  1  0
 13 29  1  0
 14 30  1  0
 14 31  1  0
 16 32  1  0
 16 33  1  0
 17 34  1  0
 17 35  1  0
 18 36  1  0
 19 37  1  0
 20 38  1  0
 20 39  1  0
 21 40  1  0
 21 41  1  0
 22 42  1  0
 22 43  1  0
 23 44  1  0
 23 45  1  0
M  END
>  <meeko>  (3) 
{"is_sidechain": [false], "free_energy": -7.776, "intermolecular_energy": -8.116, "internal_energy": -0.417}

$$$$
ligand_58_conformer_3_docked
     RDKit          3D

 45 48  0  0  0  0  0  0  0  0999 V2000
    7.3800   47.2140   51.6950 O   0  0  0  0  0  0  0  0  0  0  0  0
    6.6550   46.2110   51.9380 C   0  0  0  0  0  0  0  0  0  0  0  0
    6.6720   45.0660   51.0000 C   0  0  0  0  0  0  0  0  0  0  0  0
    7.7260   44.9340   50.0620 C   0  0  0  0  0  0  0  0  0  0  0  0
    7.7510   43.8600   49.1580 C   0  0  0  0  0  0  0  0  0  0  0  0
    6.7100   42.9400   49.2030 C   0  0  0  0  0  0  0  0  0  0  0  0
    6.4700   41.5770   48.2580 S   0  0  0  0  0  0  0  0  0  0  0  0
    5.0220   41.1880   49.0450 C   0  0  0  0  0  0  0  0  0  0  0  0
    4.7210   42.0840   50.0160 N   0  0  0  0  0  0  0  0  0  0  0  0
    5.6650   43.0550   50.1010 C   0  0  0  0  0  0  0  0  0  0  0  0
    5.6250   44.1170   51.0050 C   0  0  0  0  0  0  0  0  0  0  0  0
    5.8180   46.2160   53.1100 N   0  0  0  0  0  0  0  0  0  0  0  0
    5.2500   47.4880   53.5720 C   0  0  0  0  0  0  0  0  0  0  0  0
    4.3320   47.2920   54.7890 C   0  0  0  0  0  0  0  0  0  0  0  0
    3.4240   46.0370   54.6340 C   0  0  0  0  0  0  0  0  0  0  0  0
    2.4640   46.2370   53.4070 C   0  0  0  0  0  0  0  0  0  0  0  0
    1.0370   45.6820   53.6020 C   0  0  0  0  0  0  0  0  0  0  0  0
    1.0140   44.4290   54.4880 C   0  0  0  0  0  0  0  0  0  0  0  0
   -0.3040   43.9590   54.6130 O   0  0  0  0  0  0  0  0  0  0  0  0
    1.5850   44.7190   55.8920 C   0  0  0  0  0  0  0  0  0  0  0  0
    2.5760   45.9020   55.9300 C   0  0  0  0  0  0  0  0  0  0  0  0
    4.3210   44.7580   54.4480 C   0  0  0  0  0  0  0  0  0  0  0  0
    5.7640   45.0470   53.9950 C   0  0  0  0  0  0  0  0  0  0  0  0
    8.5332   45.6810   50.0419 H   0  0  0  0  0  0  0  0  0  0  0  0
    8.5718   43.7497   48.4341 H   0  0  0  0  0  0  0  0  0  0  0  0
    4.4012   40.3142   48.7980 H   0  0  0  0  0  0  0  0  0  0  0  0
    4.7887   44.2144   51.7129 H   0  0  0  0  0  0  0  0  0  0  0  0
    6.0712   48.1649   53.8503 H   0  0  0  0  0  0  0  0  0  0  0  0
    4.6492   47.9124   52.7541 H   0  0  0  0  0  0  0  0  0  0  0  0
    4.9541   47.1722   55.6883 H   0  0  0  0  0  0  0  0  0  0  0  0
    3.6819   48.1754   54.8719 H   0  0  0  0  0  0  0  0  0  0  0  0
    2.3867   47.3157   53.2057 H   0  0  0  0  0  0  0  0  0  0  0  0
    2.9049   45.6695   52.5742 H   0  0  0  0  0  0  0  0  0  0  0  0
    0.4167   46.4591   54.0725 H   0  0  0  0  0  0  0  0  0  0  0  0
    0.6477   45.4009   52.6123 H   0  0  0  0  0  0  0  0  0  0  0  0
    1.6442   43.6659   54.0078 H   0  0  0  0  0  0  0  0  0  0  0  0
   -0.8850   44.7550   54.7350 H   0  0  0  0  0  0  0  0  0  0  0  0
    0.7468   44.9471   56.5668 H   0  0  0  0  0  0  0  0  0  0  0  0
    2.1436   43.8234   56.2017 H   0  0  0  0  0  0  0  0  0  0  0  0
    2.0048   46.8313   56.0716 H   0  0  0  0  0  0  0  0  0  0  0  0
    3.2752   45.7143   56.7582 H   0  0  0  0  0  0  0  0  0  0  0  0
    4.3635   44.2260   55.4098 H   0  0  0  0  0  0  0  0  0  0  0  0
    3.8558   44.1650   53.6468 H   0  0  0  0  0  0  0  0  0  0  0  0
    6.3867   45.2388   54.8812 H   0  0  0  0  0  0  0  0  0  0  0  0
    6.1369   44.1730   53.4409 H   0  0  0  0  0  0  0  0  0  0  0  0
  1  2  2  0
  2  3  1  0
  3  4  2  0
  4  5  1  0
  5  6  2  0
  6  7  1  0
  7  8  1  0
  8  9  2  0
  9 10  1  0
 10 11  2  0
  2 12  1  0
 12 13  1  0
 13 14  1  0
 14 15  1  0
 15 16  1  0
 16 17  1  0
 17 18  1  0
 18 19  1  0
 18 20  1  0
 20 21  1  0
 15 22  1  0
 22 23  1  0
 11  3  1  0
 23 12  1  0
 10  6  1  0
 21 15  1  0
  4 24  1  0
  5 25  1  0
  8 26  1  0
 11 27  1  0
 13 28  1  0
 13 29  1  0
 14 30  1  0
 14 31  1  0
 16 32  1  0
 16 33  1  0
 17 34  1  0
 17 35  1  0
 18 36  1  0
 19 37  1  0
 20 38  1  0
 20 39  1  0
 21 40  1  0
 21 41  1  0
 22 42  1  0
 22 43  1  0
 23 44  1  0
 23 45  1  0
M  END
>  <meeko>  (4) 
{"is_sidechain": [false], "free_energy": -7.644, "intermolecular_energy": -8.278, "internal_energy": -0.111}

$$$$
ligand_58_conformer_3_docked
     RDKit          3D

 45 48  0  0  0  0  0  0  0  0999 V2000
    0.0400   44.5420   51.1910 O   0  0  0  0  0  0  0  0  0  0  0  0
    0.7900   44.5710   52.2040 C   0  0  0  0  0  0  0  0  0  0  0  0
    0.1780   44.6040   53.5520 C   0  0  0  0  0  0  0  0  0  0  0  0
    0.8340   45.2810   54.6100 C   0  0  0  0  0  0  0  0  0  0  0  0
    0.2730   45.3130   55.8970 C   0  0  0  0  0  0  0  0  0  0  0  0
   -0.9340   44.6540   56.1030 C   0  0  0  0  0  0  0  0  0  0  0  0
   -1.8290   44.5160   57.5140 S   0  0  0  0  0  0  0  0  0  0  0  0
   -3.0240   43.5830   56.7580 C   0  0  0  0  0  0  0  0  0  0  0  0
   -2.7480   43.3760   55.4480 N   0  0  0  0  0  0  0  0  0  0  0  0
   -1.5850   43.9760   55.0890 C   0  0  0  0  0  0  0  0  0  0  0  0
   -1.0400   43.9340   53.8050 C   0  0  0  0  0  0  0  0  0  0  0  0
    2.2190   44.5920   52.0220 N   0  0  0  0  0  0  0  0  0  0  0  0
    2.7750   45.2740   50.8470 C   0  0  0  0  0  0  0  0  0  0  0  0
    4.3120   45.2530   50.8530 C   0  0  0  0  0  0  0  0  0  0  0  0
    4.8900   45.5330   52.2710 C   0  0  0  0  0  0  0  0  0  0  0  0
    4.4840   46.9810   52.7230 C   0  0  0  0  0  0  0  0  0  0  0  0
    5.5690   47.7420   53.5140 C   0  0  0  0  0  0  0  0  0  0  0  0
    6.4280   46.8060   54.3750 C   0  0  0  0  0  0  0  0  0  0  0  0
    7.3820   47.5540   55.0850 O   0  0  0  0  0  0  0  0  0  0  0  0
    7.1510   45.7510   53.5120 C   0  0  0  0  0  0  0  0  0  0  0  0
    6.4390   45.4410   52.1780 C   0  0  0  0  0  0  0  0  0  0  0  0
    4.3520   44.4530   53.2810 C   0  0  0  0  0  0  0  0  0  0  0  0
    3.0860   43.7110   52.8130 C   0  0  0  0  0  0  0  0  0  0  0  0
    1.7925   45.7866   54.4212 H   0  0  0  0  0  0  0  0  0  0  0  0
    0.7744   45.8446   56.7192 H   0  0  0  0  0  0  0  0  0  0  0  0
   -3.9163   43.1924   57.2691 H   0  0  0  0  0  0  0  0  0  0  0  0
   -1.5521   43.3863   53.0002 H   0  0  0  0  0  0  0  0  0  0  0  0
    2.4150   44.7695   49.9382 H   0  0  0  0  0  0  0  0  0  0  0  0
    2.4459   46.3233   50.8714 H   0  0  0  0  0  0  0  0  0  0  0  0
    4.6556   44.2633   50.5178 H   0  0  0  0  0  0  0  0  0  0  0  0
    4.6667   46.0452   50.1773 H   0  0  0  0  0  0  0  0  0  0  0  0
    4.2441   47.5656   51.8226 H   0  0  0  0  0  0  0  0  0  0  0  0
    3.6295   46.8633   53.4056 H   0  0  0  0  0  0  0  0  0  0  0  0
    6.2229   48.2668   52.8020 H   0  0  0  0  0  0  0  0  0  0  0  0
    5.0608   48.4469   54.1884 H   0  0  0  0  0  0  0  0  0  0  0  0
    5.7589   46.2841   55.0749 H   0  0  0  0  0  0  0  0  0  0  0  0
    7.0760   48.4990   55.0730 H   0  0  0  0  0  0  0  0  0  0  0  0
    8.1622   46.1211   53.2873 H   0  0  0  0  0  0  0  0  0  0  0  0
    7.1631   44.8168   54.0926 H   0  0  0  0  0  0  0  0  0  0  0  0
    6.7865   46.1601   51.4216 H   0  0  0  0  0  0  0  0  0  0  0  0
    6.6879   44.4037   51.9096 H   0  0  0  0  0  0  0  0  0  0  0  0
    5.1458   43.7088   53.4424 H   0  0  0  0  0  0  0  0  0  0  0  0
    4.0749   44.9944   54.1976 H   0  0  0  0  0  0  0  0  0  0  0  0
    3.3818   42.8498   52.1959 H   0  0  0  0  0  0  0  0  0  0  0  0
    2.5284   43.3775   53.7006 H   0  0  0  0  0  0  0  0  0  0  0  0
  1  2  2  0
  2  3  1  0
  3  4  2  0
  4  5  1  0
  5  6  2  0
  6  7  1  0
  7  8  1  0
  8  9  2  0
  9 10  1  0
 10 11  2  0
  2 12  1  0
 12 13  1  0
 13 14  1  0
 14 15  1  0
 15 16  1  0
 16 17  1  0
 17 18  1  0
 18 19  1  0
 18 20  1  0
 20 21  1  0
 15 22  1  0
 22 23  1  0
 11  3  1  0
 23 12  1  0
 10  6  1  0
 21 15  1  0
  4 24  1  0
  5 25  1  0
  8 26  1  0
 11 27  1  0
 13 28  1  0
 13 29  1  0
 14 30  1  0
 14 31  1  0
 16 32  1  0
 16 33  1  0
 17 34  1  0
 17 35  1  0
 18 36  1  0
 19 37  1  0
 20 38  1  0
 20 39  1  0
 21 40  1  0
 21 41  1  0
 22 42  1  0
 22 43  1  0
 23 44  1  0
 23 45  1  0
M  END
>  <meeko>  (5) 
{"is_sidechain": [false], "free_energy": -7.409, "intermolecular_energy": -7.913, "internal_energy": -0.221}

$$$$
