ligand_62_conformer_4_docked
     RDKit          3D

 45 47  0  0  0  0  0  0  0  0999 V2000
   10.6820   45.4410   51.5460 C   0  0  0  0  0  0  0  0  0  0  0  0
    9.9520   46.6510   51.9520 N   0  0  0  0  0  0  0  0  0  0  0  0
    9.9350   46.8240   53.4150 C   0  0  0  0  0  0  0  0  0  0  0  0
    8.4930   47.0810   53.8430 C   0  0  0  0  0  0  0  0  0  0  0  0
    7.7440   47.3990   52.5480 C   0  0  2  0  0  0  0  0  0  0  0  0
    7.8230   48.9120   52.2320 C   0  0  0  0  0  0  0  0  0  0  0  0
    6.2680   46.9220   52.5850 C   0  0  0  0  0  0  0  0  0  0  0  0
    6.1710   45.4610   52.5770 N   0  0  0  0  0  0  0  0  0  0  0  0
    5.7060   44.7090   51.4480 C   0  0  0  0  0  0  0  0  0  0  0  0
    5.2540   45.3060   50.4330 O   0  0  0  0  0  0  0  0  0  0  0  0
    5.7900   43.2750   51.4690 N   0  0  0  0  0  0  0  0  0  0  0  0
    5.1860   42.4170   50.4870 C   0  0  0  0  0  0  0  0  0  0  0  0
    5.8720   42.1500   49.2930 C   0  0  0  0  0  0  0  0  0  0  0  0
    5.3180   41.3030   48.3300 C   0  0  0  0  0  0  0  0  0  0  0  0
    4.0720   40.6920   48.5530 C   0  0  0  0  0  0  0  0  0  0  0  0
    3.4800   39.7940   47.5400 C   0  0  0  0  0  0  0  0  0  0  0  0
    3.5930   39.9850   46.2080 N   0  0  0  0  0  0  0  0  0  0  0  0
    2.9140   38.9470   45.6840 C   0  0  0  0  0  0  0  0  0  0  0  0
    2.4190   38.1690   46.7060 C   0  0  0  0  0  0  0  0  0  0  0  0
    2.7860   38.7170   47.8370 O   0  0  0  0  0  0  0  0  0  0  0  0
    3.3960   40.9380   49.7590 C   0  0  0  0  0  0  0  0  0  0  0  0
    3.9510   41.7870   50.7210 C   0  0  0  0  0  0  0  0  0  0  0  0
    8.5500   46.6110   51.5110 C   0  0  0  0  0  0  0  0  0  0  0  0
   11.0120   44.8941   52.4415 H   0  0  0  0  0  0  0  0  0  0  0  0
   10.0211   44.7979   50.9464 H   0  0  0  0  0  0  0  0  0  0  0  0
   11.5591   45.7258   50.9464 H   0  0  0  0  0  0  0  0  0  0  0  0
   10.3125   45.9133   53.9030 H   0  0  0  0  0  0  0  0  0  0  0  0
   10.5765   47.6684   53.7073 H   0  0  0  0  0  0  0  0  0  0  0  0
    8.0684   46.1883   54.3255 H   0  0  0  0  0  0  0  0  0  0  0  0
    8.4195   47.9001   54.5735 H   0  0  0  0  0  0  0  0  0  0  0  0
    7.8528   49.4819   53.1724 H   0  0  0  0  0  0  0  0  0  0  0  0
    8.7331   49.1179   51.6495 H   0  0  0  0  0  0  0  0  0  0  0  0
    6.9393   49.2116   51.6495 H   0  0  0  0  0  0  0  0  0  0  0  0
    5.7920   47.3059   53.4994 H   0  0  0  0  0  0  0  0  0  0  0  0
    5.7613   47.3044   51.6867 H   0  0  0  0  0  0  0  0  0  0  0  0
    6.4950   44.9410   53.4240 H   0  0  0  0  0  0  0  0  0  0  0  0
    6.4080   42.8390   52.1900 H   0  0  0  0  0  0  0  0  0  0  0  0
    6.8543   42.6113   49.1134 H   0  0  0  0  0  0  0  0  0  0  0  0
    5.8600   41.1132   47.3918 H   0  0  0  0  0  0  0  0  0  0  0  0
    2.7767   38.7518   44.6102 H   0  0  0  0  0  0  0  0  0  0  0  0
    1.8224   37.2518   46.5928 H   0  0  0  0  0  0  0  0  0  0  0  0
    2.4236   40.4596   49.9479 H   0  0  0  0  0  0  0  0  0  0  0  0
    3.4181   41.9633   51.6670 H   0  0  0  0  0  0  0  0  0  0  0  0
    8.1958   45.5706   51.4653 H   0  0  0  0  0  0  0  0  0  0  0  0
    8.4369   47.0449   50.5066 H   0  0  0  0  0  0  0  0  0  0  0  0
  1  2  1  0
  2  3  1  0
  3  4  1  0
  4  5  1  0
  5  6  1  6
  5  7  1  0
  7  8  1  0
  8  9  1  0
  9 10  2  0
  9 11  1  0
 11 12  1  0
 12 13  2  0
 13 14  1  0
 14 15  2  0
 15 16  1  0
 16 17  2  0
 17 18  1  0
 18 19  2  0
 19 20  1  0
 15 21  1  0
 21 22  2  0
  5 23  1  0
 23  2  1  0
 22 12  1  0
 20 16  1  0
  1 24  1  0
  1 25  1  0
  1 26  1  0
  3 27  1  0
  3 28  1  0
  4 29  1  0
  4 30  1  0
  6 31  1  0
  6 32  1  0
  6 33  1  0
  7 34  1  0
  7 35  1  0
  8 36  1  0
 11 37  1  0
 13 38  1  0
 14 39  1  0
 18 40  1  0
 19 41  1  0
 21 42  1  0
 22 43  1  0
 23 44  1  0
 23 45  1  0
M  END
>  <meeko>  (1) 
{"is_sidechain": [false], "free_energy": -7.859, "intermolecular_energy": -9.696, "internal_energy": -0.413}

$$$$
ligand_62_conformer_4_docked
     RDKit          3D

 45 47  0  0  0  0  0  0  0  0999 V2000
   -3.2200   46.7790   51.6450 C   0  0  0  0  0  0  0  0  0  0  0  0
   -3.1020   45.3300   51.8670 N   0  0  0  0  0  0  0  0  0  0  0  0
   -2.5980   45.0150   53.2140 C   0  0  0  0  0  0  0  0  0  0  0  0
   -1.4470   44.0250   53.0680 C   0  0  0  0  0  0  0  0  0  0  0  0
   -1.5390   43.5170   51.6290 C   0  0  2  0  0  0  0  0  0  0  0  0
   -2.4810   42.2920   51.5440 C   0  0  0  0  0  0  0  0  0  0  0  0
   -0.1490   43.1810   51.0280 C   0  0  0  0  0  0  0  0  0  0  0  0
    0.6570   44.3880   50.8230 N   0  0  0  0  0  0  0  0  0  0  0  0
    2.0050   44.5220   51.2960 C   0  0  0  0  0  0  0  0  0  0  0  0
    2.5170   43.6210   52.0130 O   0  0  0  0  0  0  0  0  0  0  0  0
    2.7750   45.6740   50.9180 N   0  0  0  0  0  0  0  0  0  0  0  0
    4.0550   46.0090   51.4790 C   0  0  0  0  0  0  0  0  0  0  0  0
    4.1130   46.7960   52.6380 C   0  0  0  0  0  0  0  0  0  0  0  0
    5.3440   47.1190   53.2170 C   0  0  0  0  0  0  0  0  0  0  0  0
    6.5400   46.6440   52.6540 C   0  0  0  0  0  0  0  0  0  0  0  0
    7.8450   46.9800   53.2600 C   0  0  0  0  0  0  0  0  0  0  0  0
    7.9860   47.5090   54.4950 N   0  0  0  0  0  0  0  0  0  0  0  0
    9.3190   47.6470   54.6260 C   0  0  0  0  0  0  0  0  0  0  0  0
    9.9340   47.2000   53.4790 C   0  0  0  0  0  0  0  0  0  0  0  0
    8.9990   46.7950   52.6570 O   0  0  0  0  0  0  0  0  0  0  0  0
    6.4820   45.8340   51.5080 C   0  0  0  0  0  0  0  0  0  0  0  0
    5.2510   45.5140   50.9290 C   0  0  0  0  0  0  0  0  0  0  0  0
   -2.1760   44.7090   50.9090 C   0  0  0  0  0  0  0  0  0  0  0  0
   -3.2621   47.2963   52.6149 H   0  0  0  0  0  0  0  0  0  0  0  0
   -2.3479   47.1352   51.0770 H   0  0  0  0  0  0  0  0  0  0  0  0
   -4.1382   46.9894   51.0770 H   0  0  0  0  0  0  0  0  0  0  0  0
   -2.2406   45.9333   53.7028 H   0  0  0  0  0  0  0  0  0  0  0  0
   -3.3995   44.5805   53.8295 H   0  0  0  0  0  0  0  0  0  0  0  0
   -0.4828   44.5257   53.2399 H   0  0  0  0  0  0  0  0  0  0  0  0
   -1.5125   43.2059   53.7993 H   0  0  0  0  0  0  0  0  0  0  0  0
   -2.7389   41.9566   52.5594 H   0  0  0  0  0  0  0  0  0  0  0  0
   -3.3988   42.5718   51.0061 H   0  0  0  0  0  0  0  0  0  0  0  0
   -1.9748   41.4769   51.0061 H   0  0  0  0  0  0  0  0  0  0  0  0
    0.3842   42.5085   51.7161 H   0  0  0  0  0  0  0  0  0  0  0  0
   -0.3041   42.7011   50.0504 H   0  0  0  0  0  0  0  0  0  0  0  0
    0.2410   45.1710   50.2720 H   0  0  0  0  0  0  0  0  0  0  0  0
    2.4230   46.2490   50.1190 H   0  0  0  0  0  0  0  0  0  0  0  0
    3.1822   47.1624   53.0956 H   0  0  0  0  0  0  0  0  0  0  0  0
    5.3760   47.7486   54.1184 H   0  0  0  0  0  0  0  0  0  0  0  0
    9.8343   48.0525   55.5092 H   0  0  0  0  0  0  0  0  0  0  0  0
   11.0171   47.1856   53.2872 H   0  0  0  0  0  0  0  0  0  0  0  0
    7.4116   45.4490   51.0633 H   0  0  0  0  0  0  0  0  0  0  0  0
    5.2173   44.8708   50.0373 H   0  0  0  0  0  0  0  0  0  0  0  0
   -1.4011   45.4294   50.6082 H   0  0  0  0  0  0  0  0  0  0  0  0
   -2.7026   44.3880   49.9982 H   0  0  0  0  0  0  0  0  0  0  0  0
  1  2  1  0
  2  3  1  0
  3  4  1  0
  4  5  1  0
  5  6  1  1
  5  7  1  0
  7  8  1  0
  8  9  1  0
  9 10  2  0
  9 11  1  0
 11 12  1  0
 12 13  2  0
 13 14  1  0
 14 15  2  0
 15 16  1  0
 16 17  2  0
 17 18  1  0
 18 19  2  0
 19 20  1  0
 15 21  1  0
 21 22  2  0
  5 23  1  0
 23  2  1  0
 22 12  1  0
 20 16  1  0
  1 24  1  0
  1 25  1  0
  1 26  1  0
  3 27  1  0
  3 28  1  0
  4 29  1  0
  4 30  1  0
  6 31  1  0
  6 32  1  0
  6 33  1  0
  7 34  1  0
  7 35  1  0
  8 36  1  0
 11 37  1  0
 13 38  1  0
 14 39  1  0
 18 40  1  0
 19 41  1  0
 21 42  1  0
 22 43  1  0
 23 44  1  0
 23 45  1  0
M  END
>  <meeko>  (2) 
{"is_sidechain": [false], "free_energy": -7.513, "intermolecular_energy": -9.152, "internal_energy": -0.531}

$$$$
ligand_62_conformer_4_docked
     RDKit          3D

 45 47  0  0  0  0  0  0  0  0999 V2000
   -2.2170   44.0350   55.8930 C   0  0  0  0  0  0  0  0  0  0  0  0
   -2.4580   44.5450   54.5350 N   0  0  0  0  0  0  0  0  0  0  0  0
   -3.4590   43.7440   53.8110 C   0  0  0  0  0  0  0  0  0  0  0  0
   -2.8810   43.3920   52.4440 C   0  0  0  0  0  0  0  0  0  0  0  0
   -1.6700   44.3090   52.2740 C   0  0  2  0  0  0  0  0  0  0  0  0
   -2.0940   45.6590   51.6460 C   0  0  0  0  0  0  0  0  0  0  0  0
   -0.5370   43.6500   51.4450 C   0  0  0  0  0  0  0  0  0  0  0  0
    0.4570   44.6340   51.0080 N   0  0  0  0  0  0  0  0  0  0  0  0
    1.7660   44.7380   51.5840 C   0  0  0  0  0  0  0  0  0  0  0  0
    2.0750   44.0340   52.5840 O   0  0  0  0  0  0  0  0  0  0  0  0
    2.7300   45.6230   50.9930 N   0  0  0  0  0  0  0  0  0  0  0  0
    3.9970   45.9510   51.5890 C   0  0  0  0  0  0  0  0  0  0  0  0
    5.1740   45.4370   51.0280 C   0  0  0  0  0  0  0  0  0  0  0  0
    6.4200   45.7560   51.5740 C   0  0  0  0  0  0  0  0  0  0  0  0
    6.5110   46.6120   52.6850 C   0  0  0  0  0  0  0  0  0  0  0  0
    7.8240   46.9550   53.2670 C   0  0  0  0  0  0  0  0  0  0  0  0
    7.9840   47.5050   54.4900 N   0  0  0  0  0  0  0  0  0  0  0  0
    9.3190   47.6420   54.6000 C   0  0  0  0  0  0  0  0  0  0  0  0
    9.9170   47.1760   53.4520 C   0  0  0  0  0  0  0  0  0  0  0  0
    8.9690   46.7590   52.6500 O   0  0  0  0  0  0  0  0  0  0  0  0
    5.3340   47.1480   53.2330 C   0  0  0  0  0  0  0  0  0  0  0  0
    4.0880   46.8260   52.6860 C   0  0  0  0  0  0  0  0  0  0  0  0
   -1.2320   44.5300   53.7250 C   0  0  0  0  0  0  0  0  0  0  0  0
   -2.5661   44.7738   56.6294 H   0  0  0  0  0  0  0  0  0  0  0  0
   -2.7643   43.0911   56.0327 H   0  0  0  0  0  0  0  0  0  0  0  0
   -1.1403   43.8586   56.0327 H   0  0  0  0  0  0  0  0  0  0  0  0
   -3.6776   42.8236   54.3722 H   0  0  0  0  0  0  0  0  0  0  0  0
   -4.3935   44.3128   53.6961 H   0  0  0  0  0  0  0  0  0  0  0  0
   -2.5728   42.3364   52.4155 H   0  0  0  0  0  0  0  0  0  0  0  0
   -3.6172   43.5288   51.6382 H   0  0  0  0  0  0  0  0  0  0  0  0
   -2.3205   46.3801   52.4452 H   0  0  0  0  0  0  0  0  0  0  0  0
   -1.2745   46.0472   51.0233 H   0  0  0  0  0  0  0  0  0  0  0  0
   -2.9883   45.5089   51.0233 H   0  0  0  0  0  0  0  0  0  0  0  0
   -0.0380   42.8899   52.0641 H   0  0  0  0  0  0  0  0  0  0  0  0
   -0.9867   43.1958   50.5497 H   0  0  0  0  0  0  0  0  0  0  0  0
    0.2100   45.2630   50.2110 H   0  0  0  0  0  0  0  0  0  0  0  0
    2.5360   45.9730   50.0280 H   0  0  0  0  0  0  0  0  0  0  0  0
    5.1164   44.7767   50.1501 H   0  0  0  0  0  0  0  0  0  0  0  0
    7.3349   45.3348   51.1318 H   0  0  0  0  0  0  0  0  0  0  0  0
    9.8474   48.0600   55.4695 H   0  0  0  0  0  0  0  0  0  0  0  0
   10.9971   47.1570   53.2448 H   0  0  0  0  0  0  0  0  0  0  0  0
    5.3928   47.8252   54.0978 H   0  0  0  0  0  0  0  0  0  0  0  0
    3.1734   47.2598   53.1165 H   0  0  0  0  0  0  0  0  0  0  0  0
   -0.5716   43.7129   54.0509 H   0  0  0  0  0  0  0  0  0  0  0  0
   -0.6737   45.4717   53.8322 H   0  0  0  0  0  0  0  0  0  0  0  0
  1  2  1  0
  2  3  1  0
  3  4  1  0
  4  5  1  0
  5  6  1  6
  5  7  1  0
  7  8  1  0
  8  9  1  0
  9 10  2  0
  9 11  1  0
 11 12  1  0
 12 13  2  0
 13 14  1  0
 14 15  2  0
 15 16  1  0
 16 17  2  0
 17 18  1  0
 18 19  2  0
 19 20  1  0
 15 21  1  0
 21 22  2  0
  5 23  1  0
 23  2  1  0
 22 12  1  0
 20 16  1  0
  1 24  1  0
  1 25  1  0
  1 26  1  0
  3 27  1  0
  3 28  1  0
  4 29  1  0
  4 30  1  0
  6 31  1  0
  6 32  1  0
  6 33  1  0
  7 34  1  0
  7 35  1  0
  8 36  1  0
 11 37  1  0
 13 38  1  0
 14 39  1  0
 18 40  1  0
 19 41  1  0
 21 42  1  0
 22 43  1  0
 23 44  1  0
 23 45  1  0
M  END
>  <meeko>  (3) 
{"is_sidechain": [false], "free_energy": -7.363, "intermolecular_energy": -8.982, "internal_energy": -0.515}

$$$$
ligand_62_conformer_4_docked
     RDKit          3D

 45 47  0  0  0  0  0  0  0  0999 V2000
   -3.5910   47.8090   56.0270 C   0  0  0  0  0  0  0  0  0  0  0  0
   -3.0910   46.4740   56.3860 N   0  0  0  0  0  0  0  0  0  0  0  0
   -1.8560   46.5410   57.1860 C   0  0  0  0  0  0  0  0  0  0  0  0
   -0.8330   45.6020   56.5540 C   0  0  0  0  0  0  0  0  0  0  0  0
   -1.6340   44.7360   55.5820 C   0  0  2  0  0  0  0  0  0  0  0  0
   -2.1970   43.4880   56.3030 C   0  0  0  0  0  0  0  0  0  0  0  0
   -0.8080   44.3230   54.3350 C   0  0  0  0  0  0  0  0  0  0  0  0
    0.0680   45.4070   53.8840 N   0  0  0  0  0  0  0  0  0  0  0  0
    1.4990   45.3110   53.8790 C   0  0  0  0  0  0  0  0  0  0  0  0
    2.0670   44.3010   54.3750 O   0  0  0  0  0  0  0  0  0  0  0  0
    2.2750   46.3580   53.2760 N   0  0  0  0  0  0  0  0  0  0  0  0
    3.7060   46.4640   53.3780 C   0  0  0  0  0  0  0  0  0  0  0  0
    4.4910   46.3040   52.2280 C   0  0  0  0  0  0  0  0  0  0  0  0
    5.8820   46.4220   52.2950 C   0  0  0  0  0  0  0  0  0  0  0  0
    6.5120   46.7210   53.5150 C   0  0  0  0  0  0  0  0  0  0  0  0
    7.9810   46.8490   53.5940 C   0  0  0  0  0  0  0  0  0  0  0  0
    8.8130   46.6090   52.5580 N   0  0  0  0  0  0  0  0  0  0  0  0
   10.0340   46.8450   53.0760 C   0  0  0  0  0  0  0  0  0  0  0  0
    9.9010   47.2170   54.3930 C   0  0  0  0  0  0  0  0  0  0  0  0
    8.6240   47.2100   54.6830 O   0  0  0  0  0  0  0  0  0  0  0  0
    5.7240   46.9060   54.6630 C   0  0  0  0  0  0  0  0  0  0  0  0
    4.3330   46.7860   54.5950 C   0  0  0  0  0  0  0  0  0  0  0  0
   -2.7840   45.6710   55.1940 C   0  0  0  0  0  0  0  0  0  0  0  0
   -3.8045   48.3791   56.9432 H   0  0  0  0  0  0  0  0  0  0  0  0
   -2.8302   48.3384   55.4346 H   0  0  0  0  0  0  0  0  0  0  0  0
   -4.5124   47.7084   55.4346 H   0  0  0  0  0  0  0  0  0  0  0  0
   -1.4674   47.5701   57.1871 H   0  0  0  0  0  0  0  0  0  0  0  0
   -2.0575   46.2426   58.2254 H   0  0  0  0  0  0  0  0  0  0  0  0
   -0.0633   46.1751   56.0163 H   0  0  0  0  0  0  0  0  0  0  0  0
   -0.3079   44.9972   57.3080 H   0  0  0  0  0  0  0  0  0  0  0  0
   -2.1317   43.6328   57.3915 H   0  0  0  0  0  0  0  0  0  0  0  0
   -3.2485   43.3414   56.0150 H   0  0  0  0  0  0  0  0  0  0  0  0
   -1.6111   42.6027   56.0150 H   0  0  0  0  0  0  0  0  0  0  0  0
   -0.1913   43.4483   54.5892 H   0  0  0  0  0  0  0  0  0  0  0  0
   -1.5093   44.0868   53.5211 H   0  0  0  0  0  0  0  0  0  0  0  0
   -0.3750   46.2760   53.5110 H   0  0  0  0  0  0  0  0  0  0  0  0
    1.7770   47.0270   52.6460 H   0  0  0  0  0  0  0  0  0  0  0  0
    4.0082   46.0837   51.2645 H   0  0  0  0  0  0  0  0  0  0  0  0
    6.4872   46.2800   51.3875 H   0  0  0  0  0  0  0  0  0  0  0  0
   10.9858   46.7545   52.5320 H   0  0  0  0  0  0  0  0  0  0  0  0
   10.7206   47.4744   55.0801 H   0  0  0  0  0  0  0  0  0  0  0  0
    6.2050   47.1470   55.6224 H   0  0  0  0  0  0  0  0  0  0  0  0
    3.7255   46.9443   55.4983 H   0  0  0  0  0  0  0  0  0  0  0  0
   -2.4782   46.3249   54.3640 H   0  0  0  0  0  0  0  0  0  0  0  0
   -3.6642   45.1013   54.8614 H   0  0  0  0  0  0  0  0  0  0  0  0
  1  2  1  0
  2  3  1  0
  3  4  1  0
  4  5  1  0
  5  6  1  1
  5  7  1  0
  7  8  1  0
  8  9  1  0
  9 10  2  0
  9 11  1  0
 11 12  1  0
 12 13  2  0
 13 14  1  0
 14 15  2  0
 15 16  1  0
 16 17  2  0
 17 18  1  0
 18 19  2  0
 19 20  1  0
 15 21  1  0
 21 22  2  0
  5 23  1  0
 23  2  1  0
 22 12  1  0
 20 16  1  0
  1 24  1  0
  1 25  1  0
  1 26  1  0
  3 27  1  0
  3 28  1  0
  4 29  1  0
  4 30  1  0
  6 31  1  0
  6 32  1  0
  6 33  1  0
  7 34  1  0
  7 35  1  0
  8 36  1  0
 11 37  1  0
 13 38  1  0
 14 39  1  0
 18 40  1  0
 19 41  1  0
 21 42  1  0
 22 43  1  0
 23 44  1  0
 23 45  1  0
M  END
>  <meeko>  (4) 
{"is_sidechain": [false], "free_energy": -7.346, "intermolecular_energy": -9.03, "internal_energy": -0.447}

$$$$
ligand_62_conformer_4_docked
     RDKit          3D

 45 47  0  0  0  0  0  0  0  0999 V2000
   -3.0100   44.7590   49.2690 C   0  0  0  0  0  0  0  0  0  0  0  0
   -2.5080   43.7900   50.2550 N   0  0  0  0  0  0  0  0  0  0  0  0
   -3.5640   43.3370   51.1750 C   0  0  0  0  0  0  0  0  0  0  0  0
   -3.0370   43.4730   52.6000 C   0  0  0  0  0  0  0  0  0  0  0  0
   -1.5300   43.6820   52.4500 C   0  0  2  0  0  0  0  0  0  0  0  0
   -0.7940   42.3220   52.4060 C   0  0  0  0  0  0  0  0  0  0  0  0
   -0.9420   44.5870   53.5640 C   0  0  0  0  0  0  0  0  0  0  0  0
   -0.0460   45.6080   53.0160 N   0  0  0  0  0  0  0  0  0  0  0  0
    1.3770   45.4480   52.9430 C   0  0  0  0  0  0  0  0  0  0  0  0
    1.9280   44.4390   53.4600 O   0  0  0  0  0  0  0  0  0  0  0  0
    2.1640   46.4290   52.2500 N   0  0  0  0  0  0  0  0  0  0  0  0
    3.6010   46.4760   52.2750 C   0  0  0  0  0  0  0  0  0  0  0  0
    4.2480   47.1710   53.3070 C   0  0  0  0  0  0  0  0  0  0  0  0
    5.6440   47.2150   53.3680 C   0  0  0  0  0  0  0  0  0  0  0  0
    6.4180   46.5470   52.4040 C   0  0  0  0  0  0  0  0  0  0  0  0
    7.8940   46.5880   52.4620 C   0  0  0  0  0  0  0  0  0  0  0  0
    8.6040   46.4810   53.6060 N   0  0  0  0  0  0  0  0  0  0  0  0
    9.8820   46.5700   53.1900 C   0  0  0  0  0  0  0  0  0  0  0  0
    9.9020   46.7250   51.8230 C   0  0  0  0  0  0  0  0  0  0  0  0
    8.6620   46.7320   51.4040 O   0  0  0  0  0  0  0  0  0  0  0  0
    5.7720   45.8300   51.3840 C   0  0  0  0  0  0  0  0  0  0  0  0
    4.3750   45.7880   51.3230 C   0  0  0  0  0  0  0  0  0  0  0  0
   -1.4380   44.3650   51.0820 C   0  0  0  0  0  0  0  0  0  0  0  0
   -3.4550   45.6179   49.7927 H   0  0  0  0  0  0  0  0  0  0  0  0
   -2.1778   45.1050   48.6384 H   0  0  0  0  0  0  0  0  0  0  0  0
   -3.7727   44.2788   48.6384 H   0  0  0  0  0  0  0  0  0  0  0  0
   -4.4621   43.9593   51.0480 H   0  0  0  0  0  0  0  0  0  0  0  0
   -3.8317   42.2911   50.9645 H   0  0  0  0  0  0  0  0  0  0  0  0
   -3.4984   44.3365   53.1015 H   0  0  0  0  0  0  0  0  0  0  0  0
   -3.2713   42.5894   53.2118 H   0  0  0  0  0  0  0  0  0  0  0  0
   -0.6055   41.9737   53.4322 H   0  0  0  0  0  0  0  0  0  0  0  0
   -1.4165   41.5852   51.8772 H   0  0  0  0  0  0  0  0  0  0  0  0
    0.1633   42.4401   51.8772 H   0  0  0  0  0  0  0  0  0  0  0  0
   -1.7686   45.0846   54.0924 H   0  0  0  0  0  0  0  0  0  0  0  0
   -0.3607   43.9530   54.2497 H   0  0  0  0  0  0  0  0  0  0  0  0
   -0.4720   46.4770   52.6220 H   0  0  0  0  0  0  0  0  0  0  0  0
    1.6630   47.0880   51.6130 H   0  0  0  0  0  0  0  0  0  0  0  0
    3.6521   47.6859   54.0750 H   0  0  0  0  0  0  0  0  0  0  0  0
    6.1391   47.7754   54.1748 H   0  0  0  0  0  0  0  0  0  0  0  0
   10.7685   46.5258   53.8397 H   0  0  0  0  0  0  0  0  0  0  0  0
   10.7994   46.8251   51.1948 H   0  0  0  0  0  0  0  0  0  0  0  0
    6.3682   45.2979   50.6281 H   0  0  0  0  0  0  0  0  0  0  0  0
    3.8792   45.2139   50.5264 H   0  0  0  0  0  0  0  0  0  0  0  0
   -1.5820   45.4503   51.1888 H   0  0  0  0  0  0  0  0  0  0  0  0
   -0.4512   44.2046   50.6232 H   0  0  0  0  0  0  0  0  0  0  0  0
  1  2  1  0
  2  3  1  0
  3  4  1  0
  4  5  1  0
  5  6  1  6
  5  7  1  0
  7  8  1  0
  8  9  1  0
  9 10  2  0
  9 11  1  0
 11 12  1  0
 12 13  2  0
 13 14  1  0
 14 15  2  0
 15 16  1  0
 16 17  2  0
 17 18  1  0
 18 19  2  0
 19 20  1  0
 15 21  1  0
 21 22  2  0
  5 23  1  0
 23  2  1  0
 22 12  1  0
 20 16  1  0
  1 24  1  0
  1 25  1  0
  1 26  1  0
  3 27  1  0
  3 28  1  0
  4 29  1  0
  4 30  1  0
  6 31  1  0
  6 32  1  0
  6 33  1  0
  7 34  1  0
  7 35  1  0
  8 36  1  0
 11 37  1  0
 13 38  1  0
 14 39  1  0
 18 40  1  0
 19 41  1  0
 21 42  1  0
 22 43  1  0
 23 44  1  0
 23 45  1  0
M  END
>  <meeko>  (5) 
{"is_sidechain": [false], "free_energy": -7.218, "intermolecular_energy": -8.794, "internal_energy": -0.524}

$$$$
