MODEL 1
REMARK VINA RESULT:    -9.456      0.000      0.000
REMARK INTER + INTRA:         -12.909
REMARK INTER:                 -12.496
REMARK INTRA:                  -0.413
REMARK UNBOUND:                -0.413
REMARK SMILES OCC[C@H]1CN(C[C@]23C[C@](c4nn[nH]n4)(CO2)C3)c2ccccc21
REMARK SMILES IDX 4 1 5 2 6 3 19 4 20 5 21 6 22 7 23 8 24 9 3 10 2 11 1 12
REMARK SMILES IDX 7 14 8 15 9 16 18 17 17 18 10 19 16 20 11 21 12 22 15 23
REMARK SMILES IDX 13 24 14 25
REMARK H PARENT 1 13 14 26
ROOT
ATOM      1  C   UNL     1       3.955  44.861  51.969  1.00  0.00     0.043 C 
ATOM      2  C   UNL     1       4.982  46.015  51.755  1.00  0.00     0.125 C 
ATOM      3  N   UNL     1       6.071  45.448  50.962  1.00  0.00    -0.368 N 
ATOM      4  C   UNL     1       5.809  44.073  50.735  1.00  0.00     0.040 A 
ATOM      5  C   UNL     1       6.611  43.159  50.044  1.00  0.00     0.026 A 
ATOM      6  C   UNL     1       6.151  41.840  49.903  1.00  0.00     0.002 A 
ATOM      7  C   UNL     1       4.910  41.459  50.447  1.00  0.00     0.000 A 
ATOM      8  C   UNL     1       4.129  42.395  51.144  1.00  0.00     0.006 A 
ATOM      9  C   UNL     1       4.615  43.698  51.292  1.00  0.00    -0.020 A 
ENDROOT
BRANCH   1  10
ATOM     10  C   UNL     1       3.681  44.566  53.460  1.00  0.00     0.038 C 
BRANCH  10  11
ATOM     11  C   UNL     1       4.850  44.968  54.364  1.00  0.00     0.156 C 
BRANCH  11  12
ATOM     12  O   UNL     1       4.499  44.843  55.714  1.00  0.00    -0.396 OA
ATOM     13  H   UNL     1       5.077  45.480  56.209  1.00  0.00     0.210 HD
ENDBRANCH  11  12
ENDBRANCH  10  11
ENDBRANCH   1  10
BRANCH   3  14
ATOM     14  C   UNL     1       7.198  46.221  50.437  1.00  0.00     0.152 C 
BRANCH  14  15
ATOM     15  C   UNL     1       8.308  46.333  51.484  1.00  0.00     0.088 C 
ATOM     16  C   UNL     1       8.752  47.722  51.921  1.00  0.00     0.055 C 
ATOM     17  C   UNL     1       8.025  45.972  52.935  1.00  0.00     0.055 C 
ATOM     18  O   UNL     1       9.522  45.665  51.189  1.00  0.00    -0.372 OA
ATOM     19  C   UNL     1       9.237  46.869  53.075  1.00  0.00     0.063 C 
ATOM     20  C   UNL     1      10.267  46.021  52.348  1.00  0.00     0.176 C 
BRANCH  19  21
ATOM     21  C   UNL     1       9.559  47.498  54.392  1.00  0.00     0.183 A 
ATOM     22  N   UNL     1      10.593  47.131  55.174  1.00  0.00    -0.113 NA
ATOM     23  N   UNL     1       8.804  48.441  54.986  1.00  0.00    -0.139 NA
ATOM     24  N   UNL     1      10.476  47.880  56.259  1.00  0.00    -0.050 NA
ATOM     25  N   UNL     1       9.413  48.655  56.139  1.00  0.00    -0.177 N 
ATOM     26  H   UNL     1       9.094  49.339  56.859  1.00  0.00     0.216 HD
ENDBRANCH  19  21
ENDBRANCH  14  15
ENDBRANCH   3  14
TORSDOF 6
ENDMDL
MODEL 2
REMARK VINA RESULT:    -8.801      2.871      6.985
REMARK INTER + INTRA:         -12.044
REMARK INTER:                 -12.114
REMARK INTRA:                   0.069
REMARK UNBOUND:                -0.413
REMARK SMILES OCC[C@H]1CN(C[C@]23C[C@](c4nn[nH]n4)(CO2)C3)c2ccccc21
REMARK SMILES IDX 4 1 5 2 6 3 19 4 20 5 21 6 22 7 23 8 24 9 3 10 2 11 1 12
REMARK SMILES IDX 7 14 8 15 9 16 18 17 17 18 10 19 16 20 11 21 12 22 15 23
REMARK SMILES IDX 13 24 14 25
REMARK H PARENT 1 13 14 26
ROOT
ATOM      1  C   UNL     1       7.130  46.061  50.905  1.00  0.00     0.043 C 
ATOM      2  C   UNL     1       5.765  46.377  51.589  1.00  0.00     0.125 C 
ATOM      3  N   UNL     1       6.086  46.883  52.923  1.00  0.00    -0.368 N 
ATOM      4  C   UNL     1       7.492  46.848  53.102  1.00  0.00     0.040 A 
ATOM      5  C   UNL     1       8.210  47.219  54.244  1.00  0.00     0.026 A 
ATOM      6  C   UNL     1       9.611  47.138  54.207  1.00  0.00     0.002 A 
ATOM      7  C   UNL     1      10.265  46.694  53.042  1.00  0.00     0.000 A 
ATOM      8  C   UNL     1       9.519  46.318  51.914  1.00  0.00     0.006 A 
ATOM      9  C   UNL     1       8.124  46.385  51.979  1.00  0.00    -0.020 A 
ENDROOT
BRANCH   1  10
ATOM     10  C   UNL     1       7.251  44.590  50.448  1.00  0.00     0.038 C 
BRANCH  10  11
ATOM     11  C   UNL     1       8.255  44.410  49.306  1.00  0.00     0.156 C 
BRANCH  11  12
ATOM     12  O   UNL     1       8.321  43.068  48.912  1.00  0.00    -0.396 OA
ATOM     13  H   UNL     1       8.160  42.532  49.731  1.00  0.00     0.210 HD
ENDBRANCH  11  12
ENDBRANCH  10  11
ENDBRANCH   1  10
BRANCH   3  14
ATOM     14  C   UNL     1       5.096  47.406  53.865  1.00  0.00     0.152 C 
BRANCH  14  15
ATOM     15  C   UNL     1       4.051  46.339  54.197  1.00  0.00     0.088 C 
ATOM     16  C   UNL     1       2.774  46.295  53.369  1.00  0.00     0.055 C 
ATOM     17  C   UNL     1       4.318  44.880  53.854  1.00  0.00     0.055 C 
ATOM     18  O   UNL     1       3.590  46.303  55.537  1.00  0.00    -0.372 OA
ATOM     19  C   UNL     1       2.807  44.898  53.954  1.00  0.00     0.063 C 
ATOM     20  C   UNL     1       2.653  45.236  55.427  1.00  0.00     0.176 C 
BRANCH  19  21
ATOM     21  C   UNL     1       1.999  43.804  53.334  1.00  0.00     0.183 A 
ATOM     22  N   UNL     1       0.938  43.219  53.923  1.00  0.00    -0.113 NA
ATOM     23  N   UNL     1       2.292  43.218  52.158  1.00  0.00    -0.139 NA
ATOM     24  N   UNL     1       0.564  42.271  53.079  1.00  0.00    -0.050 NA
ATOM     25  N   UNL     1       1.373  42.278  52.034  1.00  0.00    -0.177 N 
ATOM     26  H   UNL     1       1.299  41.625  51.223  1.00  0.00     0.216 HD
ENDBRANCH  19  21
ENDBRANCH  14  15
ENDBRANCH   3  14
TORSDOF 6
ENDMDL
MODEL 3
REMARK VINA RESULT:    -8.167      2.601      6.518
REMARK INTER + INTRA:         -11.206
REMARK INTER:                 -11.066
REMARK INTRA:                  -0.139
REMARK UNBOUND:                -0.413
REMARK SMILES OCC[C@H]1CN(C[C@]23C[C@](c4nn[nH]n4)(CO2)C3)c2ccccc21
REMARK SMILES IDX 4 1 5 2 6 3 19 4 20 5 21 6 22 7 23 8 24 9 3 10 2 11 1 12
REMARK SMILES IDX 7 14 8 15 9 16 18 17 17 18 10 19 16 20 11 21 12 22 15 23
REMARK SMILES IDX 13 24 14 25
REMARK H PARENT 1 13 14 26
ROOT
ATOM      1  C   UNL     1       8.592  46.876  54.566  1.00  0.00     0.043 C 
ATOM      2  C   UNL     1       7.085  47.278  54.553  1.00  0.00     0.125 C 
ATOM      3  N   UNL     1       6.614  47.044  53.189  1.00  0.00    -0.368 N 
ATOM      4  C   UNL     1       7.701  46.595  52.397  1.00  0.00     0.040 A 
ATOM      5  C   UNL     1       7.685  46.283  51.033  1.00  0.00     0.026 A 
ATOM      6  C   UNL     1       8.870  45.821  50.440  1.00  0.00     0.002 A 
ATOM      7  C   UNL     1      10.040  45.678  51.210  1.00  0.00     0.000 A 
ATOM      8  C   UNL     1      10.031  46.008  52.575  1.00  0.00     0.006 A 
ATOM      9  C   UNL     1       8.845  46.486  53.141  1.00  0.00    -0.020 A 
ENDROOT
BRANCH   1  10
ATOM     10  C   UNL     1       9.520  48.027  55.012  1.00  0.00     0.038 C 
BRANCH  10  11
ATOM     11  C   UNL     1      10.642  47.552  55.940  1.00  0.00     0.156 C 
BRANCH  11  12
ATOM     12  O   UNL     1      10.645  48.290  57.131  1.00  0.00    -0.396 OA
ATOM     13  H   UNL     1      10.809  47.636  57.859  1.00  0.00     0.210 HD
ENDBRANCH  11  12
ENDBRANCH  10  11
ENDBRANCH   1  10
BRANCH   3  14
ATOM     14  C   UNL     1       5.221  47.186  52.763  1.00  0.00     0.152 C 
BRANCH  14  15
ATOM     15  C   UNL     1       4.561  45.813  52.613  1.00  0.00     0.088 C 
ATOM     16  C   UNL     1       4.167  45.349  51.219  1.00  0.00     0.055 C 
ATOM     17  C   UNL     1       5.387  44.548  52.796  1.00  0.00     0.055 C 
ATOM     18  O   UNL     1       3.398  45.585  53.390  1.00  0.00    -0.372 OA
ATOM     19  C   UNL     1       4.224  44.036  51.972  1.00  0.00     0.063 C 
ATOM     20  C   UNL     1       3.093  44.262  52.961  1.00  0.00     0.176 C 
BRANCH  19  21
ATOM     21  C   UNL     1       4.340  42.746  51.228  1.00  0.00     0.183 A 
ATOM     22  N   UNL     1       5.389  42.410  50.453  1.00  0.00    -0.113 NA
ATOM     23  N   UNL     1       3.372  41.812  51.176  1.00  0.00    -0.139 NA
ATOM     24  N   UNL     1       5.063  41.237  49.933  1.00  0.00    -0.050 NA
ATOM     25  N   UNL     1       3.865  40.889  50.369  1.00  0.00    -0.177 N 
ATOM     26  H   UNL     1       3.371  40.008  50.106  1.00  0.00     0.216 HD
ENDBRANCH  19  21
ENDBRANCH  14  15
ENDBRANCH   3  14
TORSDOF 6
ENDMDL
MODEL 4
REMARK VINA RESULT:    -7.997      3.713      6.818
REMARK INTER + INTRA:         -10.981
REMARK INTER:                 -11.190
REMARK INTRA:                   0.209
REMARK UNBOUND:                -0.413
REMARK SMILES OCC[C@H]1CN(C[C@]23C[C@](c4nn[nH]n4)(CO2)C3)c2ccccc21
REMARK SMILES IDX 4 1 5 2 6 3 19 4 20 5 21 6 22 7 23 8 24 9 3 10 2 11 1 12
REMARK SMILES IDX 7 14 8 15 9 16 18 17 17 18 10 19 16 20 11 21 12 22 15 23
REMARK SMILES IDX 13 24 14 25
REMARK H PARENT 1 13 14 26
ROOT
ATOM      1  C   UNL     1       6.852  45.370  50.465  1.00  0.00     0.043 C 
ATOM      2  C   UNL     1       5.465  45.741  51.071  1.00  0.00     0.125 C 
ATOM      3  N   UNL     1       5.742  46.534  52.267  1.00  0.00    -0.368 N 
ATOM      4  C   UNL     1       7.146  46.621  52.446  1.00  0.00     0.040 A 
ATOM      5  C   UNL     1       7.831  47.265  53.482  1.00  0.00     0.026 A 
ATOM      6  C   UNL     1       9.235  47.261  53.459  1.00  0.00     0.002 A 
ATOM      7  C   UNL     1       9.925  46.621  52.413  1.00  0.00     0.000 A 
ATOM      8  C   UNL     1       9.213  45.973  51.391  1.00  0.00     0.006 A 
ATOM      9  C   UNL     1       7.815  45.970  51.444  1.00  0.00    -0.020 A 
ENDROOT
BRANCH   1  10
ATOM     10  C   UNL     1       7.062  43.845  50.328  1.00  0.00     0.038 C 
BRANCH  10  11
ATOM     11  C   UNL     1       7.499  43.437  48.918  1.00  0.00     0.156 C 
BRANCH  11  12
ATOM     12  O   UNL     1       8.850  43.740  48.710  1.00  0.00    -0.396 OA
ATOM     13  H   UNL     1       9.349  42.897  48.870  1.00  0.00     0.210 HD
ENDBRANCH  11  12
ENDBRANCH  10  11
ENDBRANCH   1  10
BRANCH   3  14
ATOM     14  C   UNL     1       4.715  47.185  53.081  1.00  0.00     0.152 C 
BRANCH  14  15
ATOM     15  C   UNL     1       3.737  46.151  53.643  1.00  0.00     0.088 C 
ATOM     16  C   UNL     1       3.551  46.077  55.151  1.00  0.00     0.055 C 
ATOM     17  C   UNL     1       2.238  46.350  53.471  1.00  0.00     0.055 C 
ATOM     18  O   UNL     1       3.956  44.804  53.260  1.00  0.00    -0.372 OA
ATOM     19  C   UNL     1       2.287  45.405  54.655  1.00  0.00     0.063 C 
ATOM     20  C   UNL     1       2.896  44.186  53.983  1.00  0.00     0.176 C 
BRANCH  19  21
ATOM     21  C   UNL     1       1.104  45.267  55.557  1.00  0.00     0.183 A 
ATOM     22  N   UNL     1       1.068  45.702  56.831  1.00  0.00    -0.113 NA
ATOM     23  N   UNL     1      -0.028  44.616  55.228  1.00  0.00    -0.139 NA
ATOM     24  N   UNL     1      -0.118  45.326  57.283  1.00  0.00    -0.050 NA
ATOM     25  N   UNL     1      -0.761  44.683  56.324  1.00  0.00    -0.177 N 
ATOM     26  H   UNL     1      -1.718  44.277  56.422  1.00  0.00     0.216 HD
ENDBRANCH  19  21
ENDBRANCH  14  15
ENDBRANCH   3  14
TORSDOF 6
ENDMDL
MODEL 5
REMARK VINA RESULT:    -7.986      2.146      3.052
REMARK INTER + INTRA:         -10.967
REMARK INTER:                 -10.871
REMARK INTRA:                  -0.096
REMARK UNBOUND:                -0.413
REMARK SMILES OCC[C@H]1CN(C[C@]23C[C@](c4nn[nH]n4)(CO2)C3)c2ccccc21
REMARK SMILES IDX 4 1 5 2 6 3 19 4 20 5 21 6 22 7 23 8 24 9 3 10 2 11 1 12
REMARK SMILES IDX 7 14 8 15 9 16 18 17 17 18 10 19 16 20 11 21 12 22 15 23
REMARK SMILES IDX 13 24 14 25
REMARK H PARENT 1 13 14 26
ROOT
ATOM      1  C   UNL     1       2.157  43.327  51.420  1.00  0.00     0.043 C 
ATOM      2  C   UNL     1       2.491  44.829  51.669  1.00  0.00     0.125 C 
ATOM      3  N   UNL     1       3.887  45.007  51.272  1.00  0.00    -0.368 N 
ATOM      4  C   UNL     1       4.413  43.755  50.865  1.00  0.00     0.040 A 
ATOM      5  C   UNL     1       5.716  43.480  50.437  1.00  0.00     0.026 A 
ATOM      6  C   UNL     1       6.028  42.169  50.045  1.00  0.00     0.002 A 
ATOM      7  C   UNL     1       5.045  41.163  50.086  1.00  0.00     0.000 A 
ATOM      8  C   UNL     1       3.747  41.464  50.530  1.00  0.00     0.006 A 
ATOM      9  C   UNL     1       3.462  42.771  50.936  1.00  0.00    -0.020 A 
ENDROOT
BRANCH   1  10
ATOM     10  C   UNL     1       1.669  42.598  52.692  1.00  0.00     0.038 C 
BRANCH  10  11
ATOM     11  C   UNL     1       0.169  42.291  52.655  1.00  0.00     0.156 C 
BRANCH  11  12
ATOM     12  O   UNL     1      -0.180  41.403  53.680  1.00  0.00    -0.396 OA
ATOM     13  H   UNL     1       0.625  40.849  53.851  1.00  0.00     0.210 HD
ENDBRANCH  11  12
ENDBRANCH  10  11
ENDBRANCH   1  10
BRANCH   3  14
ATOM     14  C   UNL     1       4.575  46.298  51.238  1.00  0.00     0.152 C 
BRANCH  14  15
ATOM     15  C   UNL     1       5.345  46.533  52.540  1.00  0.00     0.088 C 
ATOM     16  C   UNL     1       6.539  45.641  52.844  1.00  0.00     0.055 C 
ATOM     17  C   UNL     1       6.230  47.762  52.689  1.00  0.00     0.055 C 
ATOM     18  O   UNL     1       4.584  46.504  53.735  1.00  0.00    -0.372 OA
ATOM     19  C   UNL     1       6.816  46.835  53.734  1.00  0.00     0.063 C 
ATOM     20  C   UNL     1       5.629  46.730  54.676  1.00  0.00     0.176 C 
BRANCH  19  21
ATOM     21  C   UNL     1       8.192  47.075  54.265  1.00  0.00     0.183 A 
ATOM     22  N   UNL     1       8.482  47.947  55.251  1.00  0.00    -0.113 NA
ATOM     23  N   UNL     1       9.307  46.515  53.761  1.00  0.00    -0.139 NA
ATOM     24  N   UNL     1       9.800  47.901  55.363  1.00  0.00    -0.050 NA
ATOM     25  N   UNL     1      10.281  47.049  54.476  1.00  0.00    -0.177 N 
ATOM     26  H   UNL     1      11.295  46.831  54.353  1.00  0.00     0.216 HD
ENDBRANCH  19  21
ENDBRANCH  14  15
ENDBRANCH   3  14
TORSDOF 6
ENDMDL
