ligand_8_conformer_1_docked
     RDKit          3D

 55 58  0  0  0  0  0  0  0  0999 V2000
    3.9780   41.1490   50.8520 O   0  0  0  0  0  0  0  0  0  0  0  0
    3.9850   42.4090   50.9010 C   0  0  0  0  0  0  0  0  0  0  0  0
    2.7720   43.1150   51.2050 N   0  0  0  0  0  0  0  0  0  0  0  0
    1.5780   42.4250   51.7110 C   0  0  1  0  0  0  0  0  0  0  0  0
    1.6140   42.3380   53.2360 C   0  0  0  0  0  0  0  0  0  0  0  0
    0.9050   43.5950   53.7480 C   0  0  1  0  0  0  0  0  0  0  0  0
    1.8610   44.7400   54.0840 C   0  0  0  0  0  0  0  0  0  0  0  0
    1.2650   45.9710   53.5750 N   0  0  0  0  0  0  0  0  0  0  0  0
    0.4850   45.5720   52.4060 C   0  0  0  0  0  0  0  0  0  0  0  0
    0.0450   44.1180   52.6120 C   0  0  1  0  0  0  0  0  0  0  0  0
    0.3040   43.2110   51.4000 C   0  0  0  0  0  0  0  0  0  0  0  0
    5.2460   43.1400   50.6320 C   0  0  0  0  0  0  0  0  0  0  0  0
    5.4440   44.4250   51.1640 C   0  0  0  0  0  0  0  0  0  0  0  0
    6.6300   45.1220   50.9150 C   0  0  0  0  0  0  0  0  0  0  0  0
    7.6370   44.5560   50.1270 C   0  0  0  0  0  0  0  0  0  0  0  0
    8.8100   45.3000   49.9180 O   0  0  0  0  0  0  0  0  0  0  0  0
    9.9340   45.3440   50.7980 C   0  0  0  0  0  0  0  0  0  0  0  0
    9.8340   46.5320   51.7730 C   0  0  0  0  0  0  0  0  0  0  0  0
    8.5320   47.3180   51.5240 C   0  0  0  0  0  0  0  0  0  0  0  0
    8.4000   48.4930   52.5010 C   0  0  0  0  0  0  0  0  0  0  0  0
    8.4690   48.0100   53.9550 C   0  0  0  0  0  0  0  0  0  0  0  0
    9.7620   47.2270   54.2120 C   0  0  0  0  0  0  0  0  0  0  0  0
    9.8980   46.0510   53.2380 C   0  0  0  0  0  0  0  0  0  0  0  0
    7.4340   43.2780   49.5710 C   0  0  0  0  0  0  0  0  0  0  0  0
    6.2510   42.5790   49.8220 C   0  0  0  0  0  0  0  0  0  0  0  0
    2.7230   44.1360   50.9910 H   0  0  0  0  0  0  0  0  0  0  0  0
    1.5747   41.4356   51.2304 H   0  0  0  0  0  0  0  0  0  0  0  0
    1.0874   41.4355   53.5798 H   0  0  0  0  0  0  0  0  0  0  0  0
    2.6461   42.2767   53.6115 H   0  0  0  0  0  0  0  0  0  0  0  0
    0.3557   43.3080   54.6568 H   0  0  0  0  0  0  0  0  0  0  0  0
    1.9953   44.8100   55.1735 H   0  0  0  0  0  0  0  0  0  0  0  0
    2.8471   44.5687   53.6276 H   0  0  0  0  0  0  0  0  0  0  0  0
    0.5960   46.3250   54.3000 H   0  0  0  0  0  0  0  0  0  0  0  0
   -0.3983   46.2200   52.3063 H   0  0  0  0  0  0  0  0  0  0  0  0
    1.0880   45.6656   51.4908 H   0  0  0  0  0  0  0  0  0  0  0  0
   -1.0391   44.1039   52.7977 H   0  0  0  0  0  0  0  0  0  0  0  0
   -0.5411   42.5224   51.2531 H   0  0  0  0  0  0  0  0  0  0  0  0
    0.4153   43.8007   50.4781 H   0  0  0  0  0  0  0  0  0  0  0  0
    4.6594   44.8866   51.7816 H   0  0  0  0  0  0  0  0  0  0  0  0
    6.7724   46.1252   51.3430 H   0  0  0  0  0  0  0  0  0  0  0  0
    9.9740   44.4087   51.3755 H   0  0  0  0  0  0  0  0  0  0  0  0
   10.8445   45.4665   50.1930 H   0  0  0  0  0  0  0  0  0  0  0  0
   10.6914   47.1973   51.5934 H   0  0  0  0  0  0  0  0  0  0  0  0
    8.5379   47.7058   50.4946 H   0  0  0  0  0  0  0  0  0  0  0  0
    7.6799   46.6394   51.6770 H   0  0  0  0  0  0  0  0  0  0  0  0
    9.2183   49.2053   52.3195 H   0  0  0  0  0  0  0  0  0  0  0  0
    7.4252   48.9759   52.3383 H   0  0  0  0  0  0  0  0  0  0  0  0
    8.4366   48.8813   54.6256 H   0  0  0  0  0  0  0  0  0  0  0  0
    7.6129   47.3459   54.1452 H   0  0  0  0  0  0  0  0  0  0  0  0
   10.6217   47.9011   54.0836 H   0  0  0  0  0  0  0  0  0  0  0  0
    9.7319   46.8297   55.2373 H   0  0  0  0  0  0  0  0  0  0  0  0
   10.8629   45.5517   53.4103 H   0  0  0  0  0  0  0  0  0  0  0  0
    9.0651   45.3542   53.4134 H   0  0  0  0  0  0  0  0  0  0  0  0
    8.2111   42.8280   48.9358 H   0  0  0  0  0  0  0  0  0  0  0  0
    6.1036   41.5813   49.3827 H   0  0  0  0  0  0  0  0  0  0  0  0
  1  2  2  0
  2  3  1  0
  3  4  1  0
  4  5  1  0
  5  6  1  0
  6  7  1  0
  7  8  1  0
  8  9  1  0
  9 10  1  0
 10 11  1  0
  2 12  1  0
 12 13  2  0
 13 14  1  0
 14 15  2  0
 15 16  1  0
 16 17  1  0
 17 18  1  0
 18 19  1  0
 19 20  1  0
 20 21  1  0
 21 22  1  0
 22 23  1  0
 15 24  1  0
 24 25  2  0
 11  4  1  0
 25 12  1  0
 10  6  1  0
 23 18  1  0
  3 26  1  0
  4 27  1  6
  5 28  1  0
  5 29  1  0
  6 30  1  1
  7 31  1  0
  7 32  1  0
  8 33  1  0
  9 34  1  0
  9 35  1  0
 10 36  1  1
 11 37  1  0
 11 38  1  0
 13 39  1  0
 14 40  1  0
 17 41  1  0
 17 42  1  0
 18 43  1  0
 19 44  1  0
 19 45  1  0
 20 46  1  0
 20 47  1  0
 21 48  1  0
 21 49  1  0
 22 50  1  0
 22 51  1  0
 23 52  1  0
 23 53  1  0
 24 54  1  0
 25 55  1  0
M  END
>  <meeko>  (1) 
{"is_sidechain": [false], "free_energy": -9.032, "intermolecular_energy": -11.672, "internal_energy": -0.13}

$$$$
ligand_8_conformer_1_docked
     RDKit          3D

 55 58  0  0  0  0  0  0  0  0999 V2000
    3.0440   39.3710   49.4520 O   0  0  0  0  0  0  0  0  0  0  0  0
    3.7150   40.0510   48.6290 C   0  0  0  0  0  0  0  0  0  0  0  0
    3.6750   39.7160   47.2320 N   0  0  0  0  0  0  0  0  0  0  0  0
    2.6870   38.7750   46.6880 C   0  0  1  0  0  0  0  0  0  0  0  0
    1.7700   39.4770   45.6890 C   0  0  0  0  0  0  0  0  0  0  0  0
    2.4340   39.3200   44.3190 C   0  0  1  0  0  0  0  0  0  0  0  0
    3.2990   40.5160   43.9190 C   0  0  0  0  0  0  0  0  0  0  0  0
    4.5260   39.9920   43.3280 N   0  0  0  0  0  0  0  0  0  0  0  0
    4.7590   38.7100   43.9890 C   0  0  0  0  0  0  0  0  0  0  0  0
    3.3990   38.1520   44.4230 C   0  0  1  0  0  0  0  0  0  0  0  0
    3.3610   37.6660   45.8780 C   0  0  0  0  0  0  0  0  0  0  0  0
    4.5440   41.1770   49.1200 C   0  0  0  0  0  0  0  0  0  0  0  0
    5.6470   41.6210   48.3710 C   0  0  0  0  0  0  0  0  0  0  0  0
    6.4340   42.6820   48.8260 C   0  0  0  0  0  0  0  0  0  0  0  0
    6.1420   43.3170   50.0370 C   0  0  0  0  0  0  0  0  0  0  0  0
    6.9640   44.3830   50.4400 O   0  0  0  0  0  0  0  0  0  0  0  0
    6.5070   45.6420   50.9360 C   0  0  0  0  0  0  0  0  0  0  0  0
    7.6720   46.4760   51.5030 C   0  0  0  0  0  0  0  0  0  0  0  0
    7.4290   46.7860   52.9930 C   0  0  0  0  0  0  0  0  0  0  0  0
    8.5900   47.5950   53.5850 C   0  0  0  0  0  0  0  0  0  0  0  0
    9.9240   46.8630   53.3960 C   0  0  0  0  0  0  0  0  0  0  0  0
   10.1740   46.5520   51.9160 C   0  0  0  0  0  0  0  0  0  0  0  0
    9.0170   45.7410   51.3190 C   0  0  0  0  0  0  0  0  0  0  0  0
    5.0520   42.8620   50.8030 C   0  0  0  0  0  0  0  0  0  0  0  0
    4.2620   41.8030   50.3480 C   0  0  0  0  0  0  0  0  0  0  0  0
    4.4160   40.1030   46.6060 H   0  0  0  0  0  0  0  0  0  0  0  0
    2.1406   38.3749   47.5548 H   0  0  0  0  0  0  0  0  0  0  0  0
    0.7758   39.0062   45.6874 H   0  0  0  0  0  0  0  0  0  0  0  0
    1.6302   40.5368   45.9483 H   0  0  0  0  0  0  0  0  0  0  0  0
    1.6274   39.1985   43.5810 H   0  0  0  0  0  0  0  0  0  0  0  0
    2.7645   41.1374   43.1855 H   0  0  0  0  0  0  0  0  0  0  0  0
    3.5271   41.1396   44.7960 H   0  0  0  0  0  0  0  0  0  0  0  0
    4.3340   39.7980   42.3150 H   0  0  0  0  0  0  0  0  0  0  0  0
    5.2443   38.0119   43.2910 H   0  0  0  0  0  0  0  0  0  0  0  0
    5.4162   38.8415   44.8613 H   0  0  0  0  0  0  0  0  0  0  0  0
    3.1580   37.2854   43.7898 H   0  0  0  0  0  0  0  0  0  0  0  0
    2.7808   36.7345   45.9526 H   0  0  0  0  0  0  0  0  0  0  0  0
    4.3732   37.4570   46.2545 H   0  0  0  0  0  0  0  0  0  0  0  0
    5.8929   41.1290   47.4184 H   0  0  0  0  0  0  0  0  0  0  0  0
    7.2913   43.0209   48.2259 H   0  0  0  0  0  0  0  0  0  0  0  0
    6.0330   46.2000   50.1150 H   0  0  0  0  0  0  0  0  0  0  0  0
    5.7867   45.4555   51.7462 H   0  0  0  0  0  0  0  0  0  0  0  0
    7.7213   47.4234   50.9463 H   0  0  0  0  0  0  0  0  0  0  0  0
    6.4996   47.3659   53.0924 H   0  0  0  0  0  0  0  0  0  0  0  0
    7.3514   45.8347   53.5397 H   0  0  0  0  0  0  0  0  0  0  0  0
    8.6413   48.5716   53.0813 H   0  0  0  0  0  0  0  0  0  0  0  0
    8.4120   47.7254   54.6626 H   0  0  0  0  0  0  0  0  0  0  0  0
   10.7394   47.4978   53.7731 H   0  0  0  0  0  0  0  0  0  0  0  0
    9.8857   45.9147   53.9522 H   0  0  0  0  0  0  0  0  0  0  0  0
   10.2736   47.4972   51.3621 H   0  0  0  0  0  0  0  0  0  0  0  0
   11.0958   45.9573   51.8348 H   0  0  0  0  0  0  0  0  0  0  0  0
    9.2003   45.5902   50.2449 H   0  0  0  0  0  0  0  0  0  0  0  0
    8.9617   44.7741   51.8405 H   0  0  0  0  0  0  0  0  0  0  0  0
    4.8209   43.3428   51.7650 H   0  0  0  0  0  0  0  0  0  0  0  0
    3.4127   41.4560   50.9549 H   0  0  0  0  0  0  0  0  0  0  0  0
  1  2  2  0
  2  3  1  0
  3  4  1  0
  4  5  1  0
  5  6  1  0
  6  7  1  0
  7  8  1  0
  8  9  1  0
  9 10  1  0
 10 11  1  0
  2 12  1  0
 12 13  2  0
 13 14  1  0
 14 15  2  0
 15 16  1  0
 16 17  1  0
 17 18  1  0
 18 19  1  0
 19 20  1  0
 20 21  1  0
 21 22  1  0
 22 23  1  0
 15 24  1  0
 24 25  2  0
 11  4  1  0
 25 12  1  0
 10  6  1  0
 23 18  1  0
  3 26  1  0
  4 27  1  1
  5 28  1  0
  5 29  1  0
  6 30  1  6
  7 31  1  0
  7 32  1  0
  8 33  1  0
  9 34  1  0
  9 35  1  0
 10 36  1  6
 11 37  1  0
 11 38  1  0
 13 39  1  0
 14 40  1  0
 17 41  1  0
 17 42  1  0
 18 43  1  0
 19 44  1  0
 19 45  1  0
 20 46  1  0
 20 47  1  0
 21 48  1  0
 21 49  1  0
 22 50  1  0
 22 51  1  0
 23 52  1  0
 23 53  1  0
 24 54  1  0
 25 55  1  0
M  END
>  <meeko>  (2) 
{"is_sidechain": [false], "free_energy": -8.837, "intermolecular_energy": -10.919, "internal_energy": -0.631}

$$$$
ligand_8_conformer_1_docked
     RDKit          3D

 55 58  0  0  0  0  0  0  0  0999 V2000
   -0.4240   43.7170   52.1850 O   0  0  0  0  0  0  0  0  0  0  0  0
    0.0100   44.7270   52.8030 C   0  0  0  0  0  0  0  0  0  0  0  0
   -0.8150   45.3630   53.7920 N   0  0  0  0  0  0  0  0  0  0  0  0
   -2.0430   44.7370   54.2970 C   0  0  1  0  0  0  0  0  0  0  0  0
   -1.7160   43.7010   55.3710 C   0  0  0  0  0  0  0  0  0  0  0  0
   -1.7420   44.4500   56.7050 C   0  0  1  0  0  0  0  0  0  0  0  0
   -0.3640   44.9290   57.1630 C   0  0  0  0  0  0  0  0  0  0  0  0
   -0.5210   46.2850   57.6790 N   0  0  0  0  0  0  0  0  0  0  0  0
   -1.6280   46.8630   56.9220 C   0  0  0  0  0  0  0  0  0  0  0  0
   -2.5500   45.7170   56.4900 C   0  0  1  0  0  0  0  0  0  0  0  0
   -2.9380   45.7550   55.0060 C   0  0  0  0  0  0  0  0  0  0  0  0
    1.3610   45.2480   52.4870 C   0  0  0  0  0  0  0  0  0  0  0  0
    2.0310   46.0760   53.4040 C   0  0  0  0  0  0  0  0  0  0  0  0
    3.3040   46.5720   53.1140 C   0  0  0  0  0  0  0  0  0  0  0  0
    3.9340   46.2570   51.9060 C   0  0  0  0  0  0  0  0  0  0  0  0
    5.2180   46.7770   51.6730 O   0  0  0  0  0  0  0  0  0  0  0  0
    6.3960   46.0060   51.4350 C   0  0  0  0  0  0  0  0  0  0  0  0
    7.6500   46.7180   51.9770 C   0  0  0  0  0  0  0  0  0  0  0  0
    7.5700   46.8450   53.5110 C   0  0  0  0  0  0  0  0  0  0  0  0
    8.8210   47.5300   54.0740 C   0  0  0  0  0  0  0  0  0  0  0  0
   10.0930   46.7800   53.6600 C   0  0  0  0  0  0  0  0  0  0  0  0
   10.1810   46.6520   52.1350 C   0  0  0  0  0  0  0  0  0  0  0  0
    8.9330   45.9660   51.5660 C   0  0  0  0  0  0  0  0  0  0  0  0
    3.2590   45.4460   50.9730 C   0  0  0  0  0  0  0  0  0  0  0  0
    1.9860   44.9470   51.2630 C   0  0  0  0  0  0  0  0  0  0  0  0
   -0.5640   46.3290   54.1030 H   0  0  0  0  0  0  0  0  0  0  0  0
   -2.5393   44.2959   53.4200 H   0  0  0  0  0  0  0  0  0  0  0  0
   -2.4684   42.8985   55.3690 H   0  0  0  0  0  0  0  0  0  0  0  0
   -0.7371   43.2322   55.1923 H   0  0  0  0  0  0  0  0  0  0  0  0
   -2.1482   43.7570   57.4565 H   0  0  0  0  0  0  0  0  0  0  0  0
    0.0197   44.2680   57.9541 H   0  0  0  0  0  0  0  0  0  0  0  0
    0.3500   44.9127   56.3264 H   0  0  0  0  0  0  0  0  0  0  0  0
   -0.8220   46.2130   58.6810 H   0  0  0  0  0  0  0  0  0  0  0  0
   -2.1833   47.5720   57.5537 H   0  0  0  0  0  0  0  0  0  0  0  0
   -1.2502   47.4043   56.0421 H   0  0  0  0  0  0  0  0  0  0  0  0
   -3.4843   45.7831   57.0668 H   0  0  0  0  0  0  0  0  0  0  0  0
   -3.9963   45.4815   54.8828 H   0  0  0  0  0  0  0  0  0  0  0  0
   -2.8048   46.7627   54.5856 H   0  0  0  0  0  0  0  0  0  0  0  0
    1.5488   46.3355   54.3580 H   0  0  0  0  0  0  0  0  0  0  0  0
    3.8162   47.2169   53.8432 H   0  0  0  0  0  0  0  0  0  0  0  0
    6.2933   45.0313   51.9345 H   0  0  0  0  0  0  0  0  0  0  0  0
    6.5125   45.8764   50.3489 H   0  0  0  0  0  0  0  0  0  0  0  0
    7.6899   47.7261   51.5387 H   0  0  0  0  0  0  0  0  0  0  0  0
    6.6841   47.4405   53.7765 H   0  0  0  0  0  0  0  0  0  0  0  0
    7.5005   45.8354   53.9421 H   0  0  0  0  0  0  0  0  0  0  0  0
    8.8701   48.5599   53.6909 H   0  0  0  0  0  0  0  0  0  0  0  0
    8.7561   47.5294   55.1721 H   0  0  0  0  0  0  0  0  0  0  0  0
   10.9715   47.3314   54.0264 H   0  0  0  0  0  0  0  0  0  0  0  0
   10.0634   45.7706   54.0962 H   0  0  0  0  0  0  0  0  0  0  0  0
   10.2714   47.6560   51.6948 H   0  0  0  0  0  0  0  0  0  0  0  0
   11.0605   46.0401   51.8857 H   0  0  0  0  0  0  0  0  0  0  0  0
    9.0023   45.9470   50.4684 H   0  0  0  0  0  0  0  0  0  0  0  0
    8.8825   44.9433   51.9678 H   0  0  0  0  0  0  0  0  0  0  0  0
    3.7359   45.2042   50.0117 H   0  0  0  0  0  0  0  0  0  0  0  0
    1.4683   44.3134   50.5278 H   0  0  0  0  0  0  0  0  0  0  0  0
  1  2  2  0
  2  3  1  0
  3  4  1  0
  4  5  1  0
  5  6  1  0
  6  7  1  0
  7  8  1  0
  8  9  1  0
  9 10  1  0
 10 11  1  0
  2 12  1  0
 12 13  2  0
 13 14  1  0
 14 15  2  0
 15 16  1  0
 16 17  1  0
 17 18  1  0
 18 19  1  0
 19 20  1  0
 20 21  1  0
 21 22  1  0
 22 23  1  0
 15 24  1  0
 24 25  2  0
 11  4  1  0
 25 12  1  0
 10  6  1  0
 23 18  1  0
  3 26  1  0
  4 27  1  6
  5 28  1  0
  5 29  1  0
  6 30  1  1
  7 31  1  0
  7 32  1  0
  8 33  1  0
  9 34  1  0
  9 35  1  0
 10 36  1  1
 11 37  1  0
 11 38  1  0
 13 39  1  0
 14 40  1  0
 17 41  1  0
 17 42  1  0
 18 43  1  0
 19 44  1  0
 19 45  1  0
 20 46  1  0
 20 47  1  0
 21 48  1  0
 21 49  1  0
 22 50  1  0
 22 51  1  0
 23 52  1  0
 23 53  1  0
 24 54  1  0
 25 55  1  0
M  END
>  <meeko>  (3) 
{"is_sidechain": [false], "free_energy": -8.6, "intermolecular_energy": -10.582, "internal_energy": -0.662}

$$$$
ligand_8_conformer_1_docked
     RDKit          3D

 55 58  0  0  0  0  0  0  0  0999 V2000
    1.2360   45.4980   54.3050 O   0  0  0  0  0  0  0  0  0  0  0  0
    1.2920   45.1420   53.0960 C   0  0  0  0  0  0  0  0  0  0  0  0
    0.0860   44.7760   52.4070 N   0  0  0  0  0  0  0  0  0  0  0  0
   -1.2420   45.0430   52.9730 C   0  0  1  0  0  0  0  0  0  0  0  0
   -2.1620   45.6580   51.9190 C   0  0  0  0  0  0  0  0  0  0  0  0
   -2.8670   44.4840   51.2350 C   0  0  1  0  0  0  0  0  0  0  0  0
   -2.1820   44.0260   49.9470 C   0  0  0  0  0  0  0  0  0  0  0  0
   -2.1760   42.5670   49.9480 N   0  0  0  0  0  0  0  0  0  0  0  0
   -2.1180   42.1790   51.3560 C   0  0  0  0  0  0  0  0  0  0  0  0
   -2.7720   43.2960   52.1770 C   0  0  1  0  0  0  0  0  0  0  0  0
   -1.9430   43.7480   53.3870 C   0  0  0  0  0  0  0  0  0  0  0  0
    2.6060   45.0940   52.4130 C   0  0  0  0  0  0  0  0  0  0  0  0
    3.5230   44.0740   52.7160 C   0  0  0  0  0  0  0  0  0  0  0  0
    4.7650   44.0210   52.0770 C   0  0  0  0  0  0  0  0  0  0  0  0
    5.1190   44.9850   51.1280 C   0  0  0  0  0  0  0  0  0  0  0  0
    6.3770   44.8760   50.5120 O   0  0  0  0  0  0  0  0  0  0  0  0
    7.3820   45.8900   50.4910 C   0  0  0  0  0  0  0  0  0  0  0  0
    8.0640   46.0300   51.8650 C   0  0  0  0  0  0  0  0  0  0  0  0
    9.5360   46.4550   51.6890 C   0  0  0  0  0  0  0  0  0  0  0  0
   10.2270   46.6240   53.0480 C   0  0  0  0  0  0  0  0  0  0  0  0
    9.4760   47.6300   53.9280 C   0  0  0  0  0  0  0  0  0  0  0  0
    8.0110   47.2130   54.1080 C   0  0  0  0  0  0  0  0  0  0  0  0
    7.3140   47.0450   52.7530 C   0  0  0  0  0  0  0  0  0  0  0  0
    4.2140   46.0230   50.8360 C   0  0  0  0  0  0  0  0  0  0  0  0
    2.9710   46.0760   51.4730 C   0  0  0  0  0  0  0  0  0  0  0  0
    0.1660   44.2440   51.5110 H   0  0  0  0  0  0  0  0  0  0  0  0
   -1.0759   45.7108   53.8312 H   0  0  0  0  0  0  0  0  0  0  0  0
   -2.8991   46.3210   52.3955 H   0  0  0  0  0  0  0  0  0  0  0  0
   -1.5965   46.2641   51.1959 H   0  0  0  0  0  0  0  0  0  0  0  0
   -3.8890   44.8151   50.9987 H   0  0  0  0  0  0  0  0  0  0  0  0
   -2.7371   44.3986   49.0735 H   0  0  0  0  0  0  0  0  0  0  0  0
   -1.1554   44.4175   49.8940 H   0  0  0  0  0  0  0  0  0  0  0  0
   -3.0980   42.2440   49.5660 H   0  0  0  0  0  0  0  0  0  0  0  0
   -2.6630   41.2355   51.5069 H   0  0  0  0  0  0  0  0  0  0  0  0
   -1.0746   42.0310   51.6711 H   0  0  0  0  0  0  0  0  0  0  0  0
   -3.7320   42.9268   52.5670 H   0  0  0  0  0  0  0  0  0  0  0  0
   -2.5993   43.9304   54.2507 H   0  0  0  0  0  0  0  0  0  0  0  0
   -1.2149   42.9776   53.6809 H   0  0  0  0  0  0  0  0  0  0  0  0
    3.2613   43.3100   53.4629 H   0  0  0  0  0  0  0  0  0  0  0  0
    5.4704   43.2136   52.3229 H   0  0  0  0  0  0  0  0  0  0  0  0
    8.1408   45.6270   49.7394 H   0  0  0  0  0  0  0  0  0  0  0  0
    6.9033   46.8484   50.2415 H   0  0  0  0  0  0  0  0  0  0  0  0
    8.0341   45.0509   52.3655 H   0  0  0  0  0  0  0  0  0  0  0  0
   10.0658   45.6845   51.1097 H   0  0  0  0  0  0  0  0  0  0  0  0
    9.5609   47.4199   51.1614 H   0  0  0  0  0  0  0  0  0  0  0  0
   10.2561   45.6507   53.5597 H   0  0  0  0  0  0  0  0  0  0  0  0
   11.2459   47.0018   52.8772 H   0  0  0  0  0  0  0  0  0  0  0  0
    9.9606   47.6778   54.9143 H   0  0  0  0  0  0  0  0  0  0  0  0
    9.5035   48.6146   53.4382 H   0  0  0  0  0  0  0  0  0  0  0  0
    7.9737   46.2576   54.6520 H   0  0  0  0  0  0  0  0  0  0  0  0
    7.4907   48.0004   54.6730 H   0  0  0  0  0  0  0  0  0  0  0  0
    6.2871   46.6873   52.9190 H   0  0  0  0  0  0  0  0  0  0  0  0
    7.3060   48.0185   52.2409 H   0  0  0  0  0  0  0  0  0  0  0  0
    4.4865   46.7964   50.1027 H   0  0  0  0  0  0  0  0  0  0  0  0
    2.2720   46.8921   51.2377 H   0  0  0  0  0  0  0  0  0  0  0  0
  1  2  2  0
  2  3  1  0
  3  4  1  0
  4  5  1  0
  5  6  1  0
  6  7  1  0
  7  8  1  0
  8  9  1  0
  9 10  1  0
 10 11  1  0
  2 12  1  0
 12 13  2  0
 13 14  1  0
 14 15  2  0
 15 16  1  0
 16 17  1  0
 17 18  1  0
 18 19  1  0
 19 20  1  0
 20 21  1  0
 21 22  1  0
 22 23  1  0
 15 24  1  0
 24 25  2  0
 11  4  1  0
 25 12  1  0
 10  6  1  0
 23 18  1  0
  3 26  1  0
  4 27  1  1
  5 28  1  0
  5 29  1  0
  6 30  1  6
  7 31  1  0
  7 32  1  0
  8 33  1  0
  9 34  1  0
  9 35  1  0
 10 36  1  1
 11 37  1  0
 11 38  1  0
 13 39  1  0
 14 40  1  0
 17 41  1  0
 17 42  1  0
 18 43  1  0
 19 44  1  0
 19 45  1  0
 20 46  1  0
 20 47  1  0
 21 48  1  0
 21 49  1  0
 22 50  1  0
 22 51  1  0
 23 52  1  0
 23 53  1  0
 24 54  1  0
 25 55  1  0
M  END
>  <meeko>  (4) 
{"is_sidechain": [false], "free_energy": -8.486, "intermolecular_energy": -10.314, "internal_energy": -0.782}

$$$$
ligand_8_conformer_1_docked
     RDKit          3D

 55 58  0  0  0  0  0  0  0  0999 V2000
    1.3130   42.6430   53.4960 O   0  0  0  0  0  0  0  0  0  0  0  0
    1.2540   43.3930   52.4840 C   0  0  0  0  0  0  0  0  0  0  0  0
   -0.0120   43.6310   51.8490 N   0  0  0  0  0  0  0  0  0  0  0  0
   -1.2810   43.2430   52.4800 C   0  0  1  0  0  0  0  0  0  0  0  0
   -2.2340   44.4350   52.5460 C   0  0  0  0  0  0  0  0  0  0  0  0
   -3.0520   44.3960   51.2520 C   0  0  1  0  0  0  0  0  0  0  0  0
   -2.4850   45.2850   50.1450 C   0  0  0  0  0  0  0  0  0  0  0  0
   -2.5630   44.5340   48.8960 N   0  0  0  0  0  0  0  0  0  0  0  0
   -2.4300   43.1300   49.2780 C   0  0  0  0  0  0  0  0  0  0  0  0
   -2.9610   42.9820   50.7090 C   0  0  1  0  0  0  0  0  0  0  0  0
   -2.0250   42.2020   51.6420 C   0  0  0  0  0  0  0  0  0  0  0  0
    2.4970   44.0050   51.9590 C   0  0  0  0  0  0  0  0  0  0  0  0
    2.4590   45.2710   51.3500 C   0  0  0  0  0  0  0  0  0  0  0  0
    3.6260   45.8550   50.8520 C   0  0  0  0  0  0  0  0  0  0  0  0
    4.8520   45.1890   50.9440 C   0  0  0  0  0  0  0  0  0  0  0  0
    5.9940   45.8300   50.4340 O   0  0  0  0  0  0  0  0  0  0  0  0
    7.3210   45.3040   50.4570 C   0  0  0  0  0  0  0  0  0  0  0  0
    8.2750   46.2280   51.2380 C   0  0  0  0  0  0  0  0  0  0  0  0
    7.6210   46.6730   52.5610 C   0  0  0  0  0  0  0  0  0  0  0  0
    8.5640   47.5750   53.3670 C   0  0  0  0  0  0  0  0  0  0  0  0
    9.9010   46.8730   53.6350 C   0  0  0  0  0  0  0  0  0  0  0  0
   10.5590   46.4280   52.3230 C   0  0  0  0  0  0  0  0  0  0  0  0
    9.6210   45.5250   51.5140 C   0  0  0  0  0  0  0  0  0  0  0  0
    4.8940   43.9110   51.5320 C   0  0  0  0  0  0  0  0  0  0  0  0
    3.7280   43.3260   52.0340 C   0  0  0  0  0  0  0  0  0  0  0  0
   -0.0180   44.0270   50.8830 H   0  0  0  0  0  0  0  0  0  0  0  0
   -1.0182   42.8554   53.4753 H   0  0  0  0  0  0  0  0  0  0  0  0
   -2.8967   44.3462   53.4195 H   0  0  0  0  0  0  0  0  0  0  0  0
   -1.6856   45.3832   52.6467 H   0  0  0  0  0  0  0  0  0  0  0  0
   -4.0674   44.7378   51.5013 H   0  0  0  0  0  0  0  0  0  0  0  0
   -3.0766   46.2089   50.0653 H   0  0  0  0  0  0  0  0  0  0  0  0
   -1.4437   45.5622   50.3660 H   0  0  0  0  0  0  0  0  0  0  0  0
   -3.5260   44.6680   48.5040 H   0  0  0  0  0  0  0  0  0  0  0  0
   -3.0163   42.4988   48.5940 H   0  0  0  0  0  0  0  0  0  0  0  0
   -1.3775   42.8148   49.2239 H   0  0  0  0  0  0  0  0  0  0  0  0
   -3.9119   42.4302   50.6743 H   0  0  0  0  0  0  0  0  0  0  0  0
   -2.6079   41.5351   52.2943 H   0  0  0  0  0  0  0  0  0  0  0  0
   -1.3237   41.5767   51.0700 H   0  0  0  0  0  0  0  0  0  0  0  0
    1.5020   45.8066   51.2648 H   0  0  0  0  0  0  0  0  0  0  0  0
    3.5801   46.8488   50.3827 H   0  0  0  0  0  0  0  0  0  0  0  0
    7.3063   44.3149   50.9380 H   0  0  0  0  0  0  0  0  0  0  0  0
    7.6824   45.2270   49.4209 H   0  0  0  0  0  0  0  0  0  0  0  0
    8.4739   47.1177   50.6225 H   0  0  0  0  0  0  0  0  0  0  0  0
    6.6979   47.2276   52.3367 H   0  0  0  0  0  0  0  0  0  0  0  0
    7.3982   45.7772   53.1593 H   0  0  0  0  0  0  0  0  0  0  0  0
    8.7502   48.4988   52.7997 H   0  0  0  0  0  0  0  0  0  0  0  0
    8.0892   47.8045   54.3323 H   0  0  0  0  0  0  0  0  0  0  0  0
   10.5743   47.5683   54.1577 H   0  0  0  0  0  0  0  0  0  0  0  0
    9.7125   45.9827   54.2529 H   0  0  0  0  0  0  0  0  0  0  0  0
   10.8056   47.3176   51.7249 H   0  0  0  0  0  0  0  0  0  0  0  0
   11.4695   45.8597   52.5639 H   0  0  0  0  0  0  0  0  0  0  0  0
   10.0998   45.2765   50.5554 H   0  0  0  0  0  0  0  0  0  0  0  0
    9.4258   44.6125   52.0965 H   0  0  0  0  0  0  0  0  0  0  0  0
    5.8494   43.3697   51.5969 H   0  0  0  0  0  0  0  0  0  0  0  0
    3.7726   42.3267   52.4915 H   0  0  0  0  0  0  0  0  0  0  0  0
  1  2  2  0
  2  3  1  0
  3  4  1  0
  4  5  1  0
  5  6  1  0
  6  7  1  0
  7  8  1  0
  8  9  1  0
  9 10  1  0
 10 11  1  0
  2 12  1  0
 12 13  2  0
 13 14  1  0
 14 15  2  0
 15 16  1  0
 16 17  1  0
 17 18  1  0
 18 19  1  0
 19 20  1  0
 20 21  1  0
 21 22  1  0
 22 23  1  0
 15 24  1  0
 24 25  2  0
 11  4  1  0
 25 12  1  0
 10  6  1  0
 23 18  1  0
  3 26  1  0
  4 27  1  1
  5 28  1  0
  5 29  1  0
  6 30  1  1
  7 31  1  0
  7 32  1  0
  8 33  1  0
  9 34  1  0
  9 35  1  0
 10 36  1  6
 11 37  1  0
 11 38  1  0
 13 39  1  0
 14 40  1  0
 17 41  1  0
 17 42  1  0
 18 43  1  0
 19 44  1  0
 19 45  1  0
 20 46  1  0
 20 47  1  0
 21 48  1  0
 21 49  1  0
 22 50  1  0
 22 51  1  0
 23 52  1  0
 23 53  1  0
 24 54  1  0
 25 55  1  0
M  END
>  <meeko>  (5) 
{"is_sidechain": [false], "free_energy": -8.456, "intermolecular_energy": -10.353, "internal_energy": -0.704}

$$$$
