ligand_59_conformer_3_docked
     RDKit          3D

 49 51  0  0  0  0  0  0  0  0999 V2000
   11.0810   47.6410   56.5150 C   0  0  0  0  0  0  0  0  0  0  0  0
    9.9480   48.1620   55.8270 O   0  0  0  0  0  0  0  0  0  0  0  0
    9.3880   47.5390   54.7040 C   0  0  0  0  0  0  0  0  0  0  0  0
   10.1690   47.1460   53.6620 N   0  0  0  0  0  0  0  0  0  0  0  0
    9.6330   46.5390   52.5710 C   0  0  0  0  0  0  0  0  0  0  0  0
   10.5260   46.0610   51.4720 C   0  0  0  0  0  0  0  0  0  0  0  0
    8.2550   46.3000   52.5190 C   0  0  0  0  0  0  0  0  0  0  0  0
    7.4490   46.7120   53.5980 C   0  0  0  0  0  0  0  0  0  0  0  0
    6.0110   46.5140   53.5960 N   0  0  0  0  0  0  0  0  0  0  0  0
    5.2590   46.4650   54.8620 C   0  0  0  0  0  0  0  0  0  0  0  0
    3.7410   46.3830   54.6450 C   0  0  0  0  0  0  0  0  0  0  0  0
    3.4120   45.3850   53.6140 N   0  0  0  0  0  0  0  0  0  0  0  0
    2.2320   44.5560   53.7110 C   0  0  0  0  0  0  0  0  0  0  0  0
    2.2160   43.4380   53.1190 O   0  0  0  0  0  0  0  0  0  0  0  0
    1.0100   44.9830   54.5020 C   0  0  0  0  0  0  0  0  0  0  0  0
   -0.2620   44.2530   54.0010 C   0  0  0  0  0  0  0  0  0  0  0  0
   -1.3820   44.1760   55.0650 C   0  0  0  0  0  0  0  0  0  0  0  0
   -1.2830   45.3070   56.0960 C   0  0  0  0  0  0  0  0  0  0  0  0
    0.0570   45.2660   56.8570 C   0  0  0  0  0  0  0  0  0  0  0  0
    1.2340   44.7400   56.0070 C   0  0  0  0  0  0  0  0  0  0  0  0
    4.2480   45.2700   52.4080 C   0  0  0  0  0  0  0  0  0  0  0  0
    5.2750   46.4020   52.3240 C   0  0  0  0  0  0  0  0  0  0  0  0
    8.0500   47.3170   54.6640 N   0  0  0  0  0  0  0  0  0  0  0  0
   10.9175   47.7162   57.6002 H   0  0  0  0  0  0  0  0  0  0  0  0
   11.2250   46.5862   56.2381 H   0  0  0  0  0  0  0  0  0  0  0  0
   11.9755   48.2182   56.2381 H   0  0  0  0  0  0  0  0  0  0  0  0
   11.4174   45.5838   51.9052 H   0  0  0  0  0  0  0  0  0  0  0  0
    9.9851   45.3318   50.8510 H   0  0  0  0  0  0  0  0  0  0  0  0
   10.8328   46.9155   50.8510 H   0  0  0  0  0  0  0  0  0  0  0  0
    7.8081   45.7978   51.6483 H   0  0  0  0  0  0  0  0  0  0  0  0
    5.5820   45.5798   55.4295 H   0  0  0  0  0  0  0  0  0  0  0  0
    5.4673   47.3962   55.4092 H   0  0  0  0  0  0  0  0  0  0  0  0
    3.2567   46.0975   55.5905 H   0  0  0  0  0  0  0  0  0  0  0  0
    3.3796   47.3667   54.3107 H   0  0  0  0  0  0  0  0  0  0  0  0
    0.8559   46.0609   54.3456 H   0  0  0  0  0  0  0  0  0  0  0  0
   -0.6504   44.7907   53.1235 H   0  0  0  0  0  0  0  0  0  0  0  0
    0.0290   43.2202   53.7588 H   0  0  0  0  0  0  0  0  0  0  0  0
   -2.3563   44.2429   54.5587 H   0  0  0  0  0  0  0  0  0  0  0  0
   -1.2728   43.2214   55.6006 H   0  0  0  0  0  0  0  0  0  0  0  0
   -1.3687   46.2725   55.5760 H   0  0  0  0  0  0  0  0  0  0  0  0
   -2.0966   45.1798   56.8252 H   0  0  0  0  0  0  0  0  0  0  0  0
    0.2982   46.2856   57.1920 H   0  0  0  0  0  0  0  0  0  0  0  0
   -0.0706   44.5689   57.6982 H   0  0  0  0  0  0  0  0  0  0  0  0
    2.1549   45.2555   56.3172 H   0  0  0  0  0  0  0  0  0  0  0  0
    1.3130   43.6549   56.1689 H   0  0  0  0  0  0  0  0  0  0  0  0
    4.7793   44.3071   52.4325 H   0  0  0  0  0  0  0  0  0  0  0  0
    3.5921   45.3346   51.5273 H   0  0  0  0  0  0  0  0  0  0  0  0
    5.9845   46.1898   51.5107 H   0  0  0  0  0  0  0  0  0  0  0  0
    4.7514   47.3490   52.1266 H   0  0  0  0  0  0  0  0  0  0  0  0
  1  2  1  0
  2  3  1  0
  3  4  2  0
  4  5  1  0
  5  6  1  0
  5  7  2  0
  7  8  1  0
  8  9  1  0
  9 10  1  0
 10 11  1  0
 11 12  1  0
 12 13  1  0
 13 14  2  0
 13 15  1  0
 15 16  1  0
 16 17  1  0
 17 18  1  0
 18 19  1  0
 19 20  1  0
 12 21  1  0
 21 22  1  0
  8 23  2  0
 23  3  1  0
 22  9  1  0
 20 15  1  0
  1 24  1  0
  1 25  1  0
  1 26  1  0
  6 27  1  0
  6 28  1  0
  6 29  1  0
  7 30  1  0
 10 31  1  0
 10 32  1  0
 11 33  1  0
 11 34  1  0
 15 35  1  0
 16 36  1  0
 16 37  1  0
 17 38  1  0
 17 39  1  0
 18 40  1  0
 18 41  1  0
 19 42  1  0
 19 43  1  0
 20 44  1  0
 20 45  1  0
 21 46  1  0
 21 47  1  0
 22 48  1  0
 22 49  1  0
M  END
>  <meeko>  (1) 
{"is_sidechain": [false], "free_energy": -8.789, "intermolecular_energy": -10.33, "internal_energy": -0.178}

$$$$
ligand_59_conformer_3_docked
     RDKit          3D

 49 51  0  0  0  0  0  0  0  0999 V2000
   -2.4300   42.2900   51.4890 C   0  0  0  0  0  0  0  0  0  0  0  0
   -1.3610   41.8840   52.3380 O   0  0  0  0  0  0  0  0  0  0  0  0
   -0.6680   42.7770   53.1660 C   0  0  0  0  0  0  0  0  0  0  0  0
   -1.3010   43.4180   54.1850 N   0  0  0  0  0  0  0  0  0  0  0  0
   -0.6350   44.2830   54.9930 C   0  0  0  0  0  0  0  0  0  0  0  0
   -1.3450   44.9230   56.1440 C   0  0  0  0  0  0  0  0  0  0  0  0
    0.7300   44.5130   54.7870 C   0  0  0  0  0  0  0  0  0  0  0  0
    1.3810   43.8500   53.7280 C   0  0  0  0  0  0  0  0  0  0  0  0
    2.7890   44.0610   53.4470 N   0  0  0  0  0  0  0  0  0  0  0  0
    3.5440   45.1160   54.1440 C   0  0  0  0  0  0  0  0  0  0  0  0
    5.0430   45.0920   53.8090 C   0  0  0  0  0  0  0  0  0  0  0  0
    5.2530   44.9450   52.3590 N   0  0  0  0  0  0  0  0  0  0  0  0
    6.3370   45.6150   51.6790 C   0  0  0  0  0  0  0  0  0  0  0  0
    6.2280   45.8640   50.4440 O   0  0  0  0  0  0  0  0  0  0  0  0
    7.6060   46.0300   52.4010 C   0  0  0  0  0  0  0  0  0  0  0  0
    8.8590   45.7410   51.5350 C   0  0  0  0  0  0  0  0  0  0  0  0
   10.0760   46.6210   51.9080 C   0  0  0  0  0  0  0  0  0  0  0  0
   10.0200   47.1030   53.3630 C   0  0  0  0  0  0  0  0  0  0  0  0
    8.7600   47.9500   53.6310 C   0  0  0  0  0  0  0  0  0  0  0  0
    7.5350   47.5180   52.7960 C   0  0  0  0  0  0  0  0  0  0  0  0
    4.3970   44.0350   51.5810 C   0  0  0  0  0  0  0  0  0  0  0  0
    3.4970   43.1930   52.4870 C   0  0  0  0  0  0  0  0  0  0  0  0
    0.6540   42.9940   52.9520 N   0  0  0  0  0  0  0  0  0  0  0  0
   -3.2832   42.6140   52.1031 H   0  0  0  0  0  0  0  0  0  0  0  0
   -2.0974   43.1244   50.8541 H   0  0  0  0  0  0  0  0  0  0  0  0
   -2.7351   41.4451   50.8541 H   0  0  0  0  0  0  0  0  0  0  0  0
   -0.9264   44.5457   57.0887 H   0  0  0  0  0  0  0  0  0  0  0  0
   -1.2140   46.0141   56.0948 H   0  0  0  0  0  0  0  0  0  0  0  0
   -2.4167   44.6798   56.0948 H   0  0  0  0  0  0  0  0  0  0  0  0
    1.2858   45.2005   55.4415 H   0  0  0  0  0  0  0  0  0  0  0  0
    3.1337   46.0939   53.8518 H   0  0  0  0  0  0  0  0  0  0  0  0
    3.4422   44.9387   55.2248 H   0  0  0  0  0  0  0  0  0  0  0  0
    5.5029   46.0326   54.1464 H   0  0  0  0  0  0  0  0  0  0  0  0
    5.5047   44.2346   54.3206 H   0  0  0  0  0  0  0  0  0  0  0  0
    7.6933   45.4324   53.3204 H   0  0  0  0  0  0  0  0  0  0  0  0
    9.1382   44.6851   51.6660 H   0  0  0  0  0  0  0  0  0  0  0  0
    8.5957   45.9734   50.4926 H   0  0  0  0  0  0  0  0  0  0  0  0
   10.9948   46.0334   51.7649 H   0  0  0  0  0  0  0  0  0  0  0  0
   10.0621   47.5084   51.2582 H   0  0  0  0  0  0  0  0  0  0  0  0
   10.0103   46.2277   54.0291 H   0  0  0  0  0  0  0  0  0  0  0  0
   10.9035   47.7303   53.5524 H   0  0  0  0  0  0  0  0  0  0  0  0
    8.5025   47.8626   54.6969 H   0  0  0  0  0  0  0  0  0  0  0  0
    8.9990   48.9840   53.3415 H   0  0  0  0  0  0  0  0  0  0  0  0
    6.6235   47.6858   53.3884 H   0  0  0  0  0  0  0  0  0  0  0  0
    7.5230   48.1161   51.8729 H   0  0  0  0  0  0  0  0  0  0  0  0
    3.7656   44.6302   50.9049 H   0  0  0  0  0  0  0  0  0  0  0  0
    5.0475   43.3529   51.0139 H   0  0  0  0  0  0  0  0  0  0  0  0
    2.7609   42.6559   51.8708 H   0  0  0  0  0  0  0  0  0  0  0  0
    4.1171   42.4735   53.0419 H   0  0  0  0  0  0  0  0  0  0  0  0
  1  2  1  0
  2  3  1  0
  3  4  2  0
  4  5  1  0
  5  6  1  0
  5  7  2  0
  7  8  1  0
  8  9  1  0
  9 10  1  0
 10 11  1  0
 11 12  1  0
 12 13  1  0
 13 14  2  0
 13 15  1  0
 15 16  1  0
 16 17  1  0
 17 18  1  0
 18 19  1  0
 19 20  1  0
 12 21  1  0
 21 22  1  0
  8 23  2  0
 23  3  1  0
 22  9  1  0
 20 15  1  0
  1 24  1  0
  1 25  1  0
  1 26  1  0
  6 27  1  0
  6 28  1  0
  6 29  1  0
  7 30  1  0
 10 31  1  0
 10 32  1  0
 11 33  1  0
 11 34  1  0
 15 35  1  0
 16 36  1  0
 16 37  1  0
 17 38  1  0
 17 39  1  0
 18 40  1  0
 18 41  1  0
 19 42  1  0
 19 43  1  0
 20 44  1  0
 20 45  1  0
 21 46  1  0
 21 47  1  0
 22 48  1  0
 22 49  1  0
M  END
>  <meeko>  (2) 
{"is_sidechain": [false], "free_energy": -8.707, "intermolecular_energy": -10.037, "internal_energy": -0.375}

$$$$
ligand_59_conformer_3_docked
     RDKit          3D

 49 51  0  0  0  0  0  0  0  0999 V2000
   -1.7930   44.2070   56.0980 C   0  0  0  0  0  0  0  0  0  0  0  0
   -1.2570   43.1760   55.2750 O   0  0  0  0  0  0  0  0  0  0  0  0
   -0.7210   43.4200   54.0040 C   0  0  0  0  0  0  0  0  0  0  0  0
   -1.3990   43.0610   52.8800 N   0  0  0  0  0  0  0  0  0  0  0  0
   -0.8860   43.2970   51.6450 C   0  0  0  0  0  0  0  0  0  0  0  0
   -1.6850   42.9490   50.4300 C   0  0  0  0  0  0  0  0  0  0  0  0
    0.3560   43.9310   51.5190 C   0  0  0  0  0  0  0  0  0  0  0  0
    1.0560   44.2970   52.6850 C   0  0  0  0  0  0  0  0  0  0  0  0
    2.3570   44.9380   52.6240 N   0  0  0  0  0  0  0  0  0  0  0  0
    3.5910   44.1450   52.7620 C   0  0  0  0  0  0  0  0  0  0  0  0
    4.8600   44.9800   52.5370 C   0  0  0  0  0  0  0  0  0  0  0  0
    4.7820   46.2570   53.2640 N   0  0  0  0  0  0  0  0  0  0  0  0
    5.9480   46.8520   53.8780 C   0  0  0  0  0  0  0  0  0  0  0  0
    5.7940   47.6420   54.8540 O   0  0  0  0  0  0  0  0  0  0  0  0
    7.3530   46.5590   53.3870 C   0  0  0  0  0  0  0  0  0  0  0  0
    7.5410   47.0260   51.9210 C   0  0  0  0  0  0  0  0  0  0  0  0
    9.0180   47.2990   51.5500 C   0  0  0  0  0  0  0  0  0  0  0  0
    9.9930   46.4970   52.4210 C   0  0  0  0  0  0  0  0  0  0  0  0
    9.8380   46.8460   53.9140 C   0  0  0  0  0  0  0  0  0  0  0  0
    8.3930   47.2140   54.3160 C   0  0  0  0  0  0  0  0  0  0  0  0
    3.5130   47.0010   53.3110 C   0  0  0  0  0  0  0  0  0  0  0  0
    2.4640   46.3880   52.3810 C   0  0  0  0  0  0  0  0  0  0  0  0
    0.4860   44.0320   53.8960 N   0  0  0  0  0  0  0  0  0  0  0  0
   -1.6545   43.9406   57.1562 H   0  0  0  0  0  0  0  0  0  0  0  0
   -1.2724   45.1527   55.8868 H   0  0  0  0  0  0  0  0  0  0  0  0
   -2.8662   44.3241   55.8868 H   0  0  0  0  0  0  0  0  0  0  0  0
   -2.6535   42.5272   50.7365 H   0  0  0  0  0  0  0  0  0  0  0  0
   -1.8533   43.8554   49.8298 H   0  0  0  0  0  0  0  0  0  0  0  0
   -1.1360   42.2085   49.8298 H   0  0  0  0  0  0  0  0  0  0  0  0
    0.7783   44.1399   50.5250 H   0  0  0  0  0  0  0  0  0  0  0  0
    3.6246   43.7199   53.7760 H   0  0  0  0  0  0  0  0  0  0  0  0
    3.5691   43.3595   51.9922 H   0  0  0  0  0  0  0  0  0  0  0  0
    5.7323   44.4138   52.8955 H   0  0  0  0  0  0  0  0  0  0  0  0
    4.9561   45.1921   51.4619 H   0  0  0  0  0  0  0  0  0  0  0  0
    7.5068   45.4700   53.4096 H   0  0  0  0  0  0  0  0  0  0  0  0
    7.1521   46.2435   51.2528 H   0  0  0  0  0  0  0  0  0  0  0  0
    6.9963   47.9751   51.8092 H   0  0  0  0  0  0  0  0  0  0  0  0
    9.1752   47.0234   50.4968 H   0  0  0  0  0  0  0  0  0  0  0  0
    9.2161   48.3678   51.7186 H   0  0  0  0  0  0  0  0  0  0  0  0
    9.7953   45.4238   52.2828 H   0  0  0  0  0  0  0  0  0  0  0  0
   11.0181   46.7503   52.1129 H   0  0  0  0  0  0  0  0  0  0  0  0
   10.1538   45.9764   54.5090 H   0  0  0  0  0  0  0  0  0  0  0  0
   10.4615   47.7320   54.1046 H   0  0  0  0  0  0  0  0  0  0  0  0
    8.2132   46.8740   55.3466 H   0  0  0  0  0  0  0  0  0  0  0  0
    8.2840   48.3055   54.2334 H   0  0  0  0  0  0  0  0  0  0  0  0
    3.1285   46.9857   54.3415 H   0  0  0  0  0  0  0  0  0  0  0  0
    3.7066   48.0314   52.9783 H   0  0  0  0  0  0  0  0  0  0  0  0
    1.4892   46.8615   52.5699 H   0  0  0  0  0  0  0  0  0  0  0  0
    2.7660   46.5567   51.3368 H   0  0  0  0  0  0  0  0  0  0  0  0
  1  2  1  0
  2  3  1  0
  3  4  2  0
  4  5  1  0
  5  6  1  0
  5  7  2  0
  7  8  1  0
  8  9  1  0
  9 10  1  0
 10 11  1  0
 11 12  1  0
 12 13  1  0
 13 14  2  0
 13 15  1  0
 15 16  1  0
 16 17  1  0
 17 18  1  0
 18 19  1  0
 19 20  1  0
 12 21  1  0
 21 22  1  0
  8 23  2  0
 23  3  1  0
 22  9  1  0
 20 15  1  0
  1 24  1  0
  1 25  1  0
  1 26  1  0
  6 27  1  0
  6 28  1  0
  6 29  1  0
  7 30  1  0
 10 31  1  0
 10 32  1  0
 11 33  1  0
 11 34  1  0
 15 35  1  0
 16 36  1  0
 16 37  1  0
 17 38  1  0
 17 39  1  0
 18 40  1  0
 18 41  1  0
 19 42  1  0
 19 43  1  0
 20 44  1  0
 20 45  1  0
 21 46  1  0
 21 47  1  0
 22 48  1  0
 22 49  1  0
M  END
>  <meeko>  (3) 
{"is_sidechain": [false], "free_energy": -8.7, "intermolecular_energy": -10.137, "internal_energy": -0.267}

$$$$
ligand_59_conformer_3_docked
     RDKit          3D

 49 51  0  0  0  0  0  0  0  0999 V2000
   -2.4990   43.0250   50.0390 C   0  0  0  0  0  0  0  0  0  0  0  0
   -1.2400   42.6550   50.5930 O   0  0  0  0  0  0  0  0  0  0  0  0
   -0.7200   43.2390   51.7560 C   0  0  0  0  0  0  0  0  0  0  0  0
   -1.4260   43.2270   52.9190 N   0  0  0  0  0  0  0  0  0  0  0  0
   -0.9270   43.7890   54.0500 C   0  0  0  0  0  0  0  0  0  0  0  0
   -1.7000   43.7020   55.3270 C   0  0  0  0  0  0  0  0  0  0  0  0
    0.3410   44.3820   54.0280 C   0  0  0  0  0  0  0  0  0  0  0  0
    1.0670   44.3960   52.8210 C   0  0  0  0  0  0  0  0  0  0  0  0
    2.3760   45.0140   52.7260 N   0  0  0  0  0  0  0  0  0  0  0  0
    3.6000   44.1990   52.8280 C   0  0  0  0  0  0  0  0  0  0  0  0
    4.8760   45.0130   52.5700 C   0  0  0  0  0  0  0  0  0  0  0  0
    4.8410   46.2900   53.3020 N   0  0  0  0  0  0  0  0  0  0  0  0
    6.0330   46.8620   53.8840 C   0  0  0  0  0  0  0  0  0  0  0  0
    5.9200   47.6520   54.8650 O   0  0  0  0  0  0  0  0  0  0  0  0
    7.4190   46.5460   53.3540 C   0  0  0  0  0  0  0  0  0  0  0  0
    7.5780   47.0220   51.8880 C   0  0  0  0  0  0  0  0  0  0  0  0
    9.0500   47.2690   51.4800 C   0  0  0  0  0  0  0  0  0  0  0  0
   10.0310   46.4400   52.3190 C   0  0  0  0  0  0  0  0  0  0  0  0
    9.9220   46.7790   53.8190 C   0  0  0  0  0  0  0  0  0  0  0  0
    8.4960   47.1730   54.2610 C   0  0  0  0  0  0  0  0  0  0  0  0
    3.5870   47.0560   53.3850 C   0  0  0  0  0  0  0  0  0  0  0  0
    2.5020   46.4630   52.4820 C   0  0  0  0  0  0  0  0  0  0  0  0
    0.5080   43.8140   51.7200 N   0  0  0  0  0  0  0  0  0  0  0  0
   -3.2101   43.2340   50.8518 H   0  0  0  0  0  0  0  0  0  0  0  0
   -2.3764   43.9251   49.4187 H   0  0  0  0  0  0  0  0  0  0  0  0
   -2.8828   42.2017   49.4187 H   0  0  0  0  0  0  0  0  0  0  0  0
   -1.0094   43.7797   56.1797 H   0  0  0  0  0  0  0  0  0  0  0  0
   -2.4301   44.5236   55.3704 H   0  0  0  0  0  0  0  0  0  0  0  0
   -2.2292   42.7386   55.3704 H   0  0  0  0  0  0  0  0  0  0  0  0
    0.7638   44.8301   54.9393 H   0  0  0  0  0  0  0  0  0  0  0  0
    3.6543   43.7704   53.8396 H   0  0  0  0  0  0  0  0  0  0  0  0
    3.5434   43.4160   52.0575 H   0  0  0  0  0  0  0  0  0  0  0  0
    5.7481   44.4309   52.9026 H   0  0  0  0  0  0  0  0  0  0  0  0
    4.9451   45.2267   51.4932 H   0  0  0  0  0  0  0  0  0  0  0  0
    7.5518   45.4541   53.3638 H   0  0  0  0  0  0  0  0  0  0  0  0
    7.1560   46.2534   51.2238 H   0  0  0  0  0  0  0  0  0  0  0  0
    7.0500   47.9828   51.7988 H   0  0  0  0  0  0  0  0  0  0  0  0
    9.1740   46.9993   50.4208 H   0  0  0  0  0  0  0  0  0  0  0  0
    9.2740   48.3322   51.6513 H   0  0  0  0  0  0  0  0  0  0  0  0
    9.8082   45.3722   52.1772 H   0  0  0  0  0  0  0  0  0  0  0  0
   11.0527   46.6756   51.9864 H   0  0  0  0  0  0  0  0  0  0  0  0
   10.2348   45.8978   54.3984 H   0  0  0  0  0  0  0  0  0  0  0  0
   10.5686   47.6501   54.0010 H   0  0  0  0  0  0  0  0  0  0  0  0
    8.3359   46.8287   55.2934 H   0  0  0  0  0  0  0  0  0  0  0  0
    8.4071   48.2671   54.1894 H   0  0  0  0  0  0  0  0  0  0  0  0
    3.2304   47.0450   54.4255 H   0  0  0  0  0  0  0  0  0  0  0  0
    3.7894   48.0838   53.0493 H   0  0  0  0  0  0  0  0  0  0  0  0
    1.5412   46.9532   52.6976 H   0  0  0  0  0  0  0  0  0  0  0  0
    2.7787   46.6284   51.4303 H   0  0  0  0  0  0  0  0  0  0  0  0
  1  2  1  0
  2  3  1  0
  3  4  2  0
  4  5  1  0
  5  6  1  0
  5  7  2  0
  7  8  1  0
  8  9  1  0
  9 10  1  0
 10 11  1  0
 11 12  1  0
 12 13  1  0
 13 14  2  0
 13 15  1  0
 15 16  1  0
 16 17  1  0
 17 18  1  0
 18 19  1  0
 19 20  1  0
 12 21  1  0
 21 22  1  0
  8 23  2  0
 23  3  1  0
 22  9  1  0
 20 15  1  0
  1 24  1  0
  1 25  1  0
  1 26  1  0
  6 27  1  0
  6 28  1  0
  6 29  1  0
  7 30  1  0
 10 31  1  0
 10 32  1  0
 11 33  1  0
 11 34  1  0
 15 35  1  0
 16 36  1  0
 16 37  1  0
 17 38  1  0
 17 39  1  0
 18 40  1  0
 18 41  1  0
 19 42  1  0
 19 43  1  0
 20 44  1  0
 20 45  1  0
 21 46  1  0
 21 47  1  0
 22 48  1  0
 22 49  1  0
M  END
>  <meeko>  (4) 
{"is_sidechain": [false], "free_energy": -8.505, "intermolecular_energy": -9.908, "internal_energy": -0.268}

$$$$
ligand_59_conformer_3_docked
     RDKit          3D

 49 51  0  0  0  0  0  0  0  0999 V2000
   11.1350   47.6910   56.5160 C   0  0  0  0  0  0  0  0  0  0  0  0
    9.9940   48.1560   55.8020 O   0  0  0  0  0  0  0  0  0  0  0  0
    9.4600   47.4770   54.6980 C   0  0  0  0  0  0  0  0  0  0  0  0
   10.2190   47.2280   53.5980 N   0  0  0  0  0  0  0  0  0  0  0  0
    9.7090   46.5690   52.5260 C   0  0  0  0  0  0  0  0  0  0  0  0
   10.5880   46.2540   51.3580 C   0  0  0  0  0  0  0  0  0  0  0  0
    8.3820   46.1240   52.5530 C   0  0  0  0  0  0  0  0  0  0  0  0
    7.5970   46.3870   53.6930 C   0  0  0  0  0  0  0  0  0  0  0  0
    6.2090   45.9720   53.7760 N   0  0  0  0  0  0  0  0  0  0  0  0
    5.7130   44.8430   52.9700 C   0  0  0  0  0  0  0  0  0  0  0  0
    4.2590   44.4760   53.2980 C   0  0  0  0  0  0  0  0  0  0  0  0
    3.4190   45.6820   53.3760 N   0  0  0  0  0  0  0  0  0  0  0  0
    2.0500   45.6840   52.9100 C   0  0  0  0  0  0  0  0  0  0  0  0
    1.5250   46.7760   52.5490 O   0  0  0  0  0  0  0  0  0  0  0  0
    1.2220   44.4150   52.8410 C   0  0  0  0  0  0  0  0  0  0  0  0
    0.4620   44.1720   54.1700 C   0  0  0  0  0  0  0  0  0  0  0  0
   -0.7950   43.2860   54.0040 C   0  0  0  0  0  0  0  0  0  0  0  0
   -0.6930   42.3570   52.7870 C   0  0  0  0  0  0  0  0  0  0  0  0
   -0.5330   43.1540   51.4770 C   0  0  0  0  0  0  0  0  0  0  0  0
    0.2490   44.4740   51.6480 C   0  0  0  0  0  0  0  0  0  0  0  0
    3.9400   46.9020   54.0120 C   0  0  0  0  0  0  0  0  0  0  0  0
    5.2830   46.6490   54.7030 C   0  0  0  0  0  0  0  0  0  0  0  0
    8.1710   47.0550   54.7360 N   0  0  0  0  0  0  0  0  0  0  0  0
   10.9473   47.7675   57.5972 H   0  0  0  0  0  0  0  0  0  0  0  0
   11.3306   46.6414   56.2512 H   0  0  0  0  0  0  0  0  0  0  0  0
   12.0085   48.3049   56.2512 H   0  0  0  0  0  0  0  0  0  0  0  0
   11.5661   45.9035   51.7192 H   0  0  0  0  0  0  0  0  0  0  0  0
   10.1193   45.4679   50.7478 H   0  0  0  0  0  0  0  0  0  0  0  0
   10.7252   47.1589   50.7478 H   0  0  0  0  0  0  0  0  0  0  0  0
    7.9587   45.5774   51.6974 H   0  0  0  0  0  0  0  0  0  0  0  0
    5.7760   45.1154   51.9061 H   0  0  0  0  0  0  0  0  0  0  0  0
    6.3377   43.9681   53.2030 H   0  0  0  0  0  0  0  0  0  0  0  0
    3.8679   43.8147   52.5108 H   0  0  0  0  0  0  0  0  0  0  0  0
    4.2358   43.9672   54.2730 H   0  0  0  0  0  0  0  0  0  0  0  0
    1.9036   43.5651   52.6890 H   0  0  0  0  0  0  0  0  0  0  0  0
    1.1451   43.6794   54.8776 H   0  0  0  0  0  0  0  0  0  0  0  0
    0.1229   45.1527   54.5349 H   0  0  0  0  0  0  0  0  0  0  0  0
   -0.9179   42.6724   54.9087 H   0  0  0  0  0  0  0  0  0  0  0  0
   -1.6583   43.9502   53.8503 H   0  0  0  0  0  0  0  0  0  0  0  0
    0.1788   41.6981   52.9128 H   0  0  0  0  0  0  0  0  0  0  0  0
   -1.6218   41.7712   52.7223 H   0  0  0  0  0  0  0  0  0  0  0  0
    0.0017   42.5247   50.7502 H   0  0  0  0  0  0  0  0  0  0  0  0
   -1.5443   43.4202   51.1359 H   0  0  0  0  0  0  0  0  0  0  0  0
    0.8231   44.6686   50.7301 H   0  0  0  0  0  0  0  0  0  0  0  0
   -0.4770   45.2779   51.8397 H   0  0  0  0  0  0  0  0  0  0  0  0
    4.0750   47.6760   53.2421 H   0  0  0  0  0  0  0  0  0  0  0  0
    3.2171   47.2277   54.7745 H   0  0  0  0  0  0  0  0  0  0  0  0
    5.7183   47.6097   55.0154 H   0  0  0  0  0  0  0  0  0  0  0  0
    5.1209   46.0085   55.5825 H   0  0  0  0  0  0  0  0  0  0  0  0
  1  2  1  0
  2  3  1  0
  3  4  2  0
  4  5  1  0
  5  6  1  0
  5  7  2  0
  7  8  1  0
  8  9  1  0
  9 10  1  0
 10 11  1  0
 11 12  1  0
 12 13  1  0
 13 14  2  0
 13 15  1  0
 15 16  1  0
 16 17  1  0
 17 18  1  0
 18 19  1  0
 19 20  1  0
 12 21  1  0
 21 22  1  0
  8 23  2  0
 23  3  1  0
 22  9  1  0
 20 15  1  0
  1 24  1  0
  1 25  1  0
  1 26  1  0
  6 27  1  0
  6 28  1  0
  6 29  1  0
  7 30  1  0
 10 31  1  0
 10 32  1  0
 11 33  1  0
 11 34  1  0
 15 35  1  0
 16 36  1  0
 16 37  1  0
 17 38  1  0
 17 39  1  0
 18 40  1  0
 18 41  1  0
 19 42  1  0
 19 43  1  0
 20 44  1  0
 20 45  1  0
 21 46  1  0
 21 47  1  0
 22 48  1  0
 22 49  1  0
M  END
>  <meeko>  (5) 
{"is_sidechain": [false], "free_energy": -8.44, "intermolecular_energy": -9.697, "internal_energy": -0.402}

$$$$
