MODEL 1
REMARK VINA RESULT:    -8.293      0.000      0.000
REMARK INTER + INTRA:         -11.086
REMARK INTER:                 -10.717
REMARK INTRA:                  -0.369
REMARK UNBOUND:                -0.369
REMARK SMILES CC1(Cn2cc(C(=O)N[C@@H]3C[C@H]3c3cccc(F)c3)nn2)COC1
REMARK SMILES IDX 4 1 5 2 6 3 20 4 21 5 3 6 2 7 22 8 24 9 23 10 1 11 7 12 8 13
REMARK SMILES IDX 9 14 10 16 11 17 12 18 13 19 14 20 19 21 15 22 17 23 16 24
REMARK SMILES IDX 18 25
REMARK H PARENT 9 15
ROOT
ATOM      1  N   UNL     1      -0.298  44.692  53.967  1.00  0.00    -0.251 N 
ATOM      2  C   UNL     1       0.946  45.164  54.157  1.00  0.00     0.145 A 
ATOM      3  C   UNL     1       1.330  45.724  52.956  1.00  0.00     0.170 A 
ATOM      4  N   UNL     1       0.323  45.563  52.074  1.00  0.00    -0.125 NA
ATOM      5  N   UNL     1      -0.649  44.928  52.713  1.00  0.00    -0.067 NA
ENDROOT
BRANCH   1   6
ATOM      6  C   UNL     1      -1.116  43.958  54.936  1.00  0.00     0.157 C 
BRANCH   6   7
ATOM      7  C   UNL     1      -2.055  44.861  55.781  1.00  0.00     0.034 C 
ATOM      8  C   UNL     1      -2.625  44.241  57.046  1.00  0.00     0.171 C 
ATOM      9  C   UNL     1      -1.367  45.793  56.764  1.00  0.00     0.171 C 
ATOM     10  O   UNL     1      -1.931  45.141  57.878  1.00  0.00    -0.380 OA
ATOM     11  C   UNL     1      -3.116  45.567  54.920  1.00  0.00     0.018 C 
ENDBRANCH   6   7
ENDBRANCH   1   6
BRANCH   3  12
ATOM     12  C   UNL     1       2.609  46.379  52.635  1.00  0.00     0.273 C 
ATOM     13  O   UNL     1       2.675  47.637  52.659  1.00  0.00    -0.267 OA
ATOM     14  N   UNL     1       3.773  45.608  52.299  1.00  0.00    -0.347 N 
ATOM     15  H   UNL     1       3.749  44.568  52.369  1.00  0.00     0.164 HD
BRANCH  14  16
ATOM     16  C   UNL     1       5.048  46.251  51.999  1.00  0.00     0.090 C 
ATOM     17  C   UNL     1       5.754  45.635  50.792  1.00  0.00     0.036 C 
ATOM     18  C   UNL     1       6.255  45.343  52.204  1.00  0.00     0.044 C 
BRANCH  18  19
ATOM     19  C   UNL     1       7.560  46.003  52.613  1.00  0.00    -0.040 A 
ATOM     20  C   UNL     1       7.574  46.740  53.810  1.00  0.00     0.004 A 
ATOM     21  C   UNL     1       8.751  45.916  51.859  1.00  0.00     0.043 A 
ATOM     22  C   UNL     1       8.741  47.373  54.245  1.00  0.00     0.003 A 
ATOM     23  C   UNL     1       9.917  46.552  52.298  1.00  0.00     0.123 A 
ATOM     24  C   UNL     1       9.911  47.280  53.490  1.00  0.00     0.039 A 
ATOM     25  F   UNL     1      11.055  46.460  51.568  1.00  0.00    -0.207 F 
ENDBRANCH  18  19
ENDBRANCH  14  16
ENDBRANCH   3  12
TORSDOF 5
ENDMDL
MODEL 2
REMARK VINA RESULT:    -8.189      2.911      3.499
REMARK INTER + INTRA:         -10.952
REMARK INTER:                 -10.433
REMARK INTRA:                  -0.519
REMARK UNBOUND:                -0.369
REMARK SMILES CC1(Cn2cc(C(=O)N[C@@H]3C[C@H]3c3cccc(F)c3)nn2)COC1
REMARK SMILES IDX 4 1 5 2 6 3 20 4 21 5 3 6 2 7 22 8 24 9 23 10 1 11 7 12 8 13
REMARK SMILES IDX 9 14 10 16 11 17 12 18 13 19 14 20 19 21 15 22 17 23 16 24
REMARK SMILES IDX 18 25
REMARK H PARENT 9 15
ROOT
ATOM      1  N   UNL     1       0.089  43.131  51.656  1.00  0.00    -0.251 N 
ATOM      2  C   UNL     1       1.292  43.661  51.373  1.00  0.00     0.145 A 
ATOM      3  C   UNL     1       2.115  43.326  52.429  1.00  0.00     0.170 A 
ATOM      4  N   UNL     1       1.391  42.623  53.322  1.00  0.00    -0.125 NA
ATOM      5  N   UNL     1       0.164  42.525  52.830  1.00  0.00    -0.067 NA
ENDROOT
BRANCH   1   6
ATOM      6  C   UNL     1      -1.136  43.262  50.863  1.00  0.00     0.157 C 
BRANCH   6   7
ATOM      7  C   UNL     1      -2.227  44.143  51.529  1.00  0.00     0.034 C 
ATOM      8  C   UNL     1      -1.730  45.320  52.352  1.00  0.00     0.171 C 
ATOM      9  C   UNL     1      -2.819  45.235  50.655  1.00  0.00     0.171 C 
ATOM     10  O   UNL     1      -2.301  46.260  51.472  1.00  0.00    -0.380 OA
ATOM     11  C   UNL     1      -3.294  43.304  52.253  1.00  0.00     0.018 C 
ENDBRANCH   6   7
ENDBRANCH   1   6
BRANCH   3  12
ATOM     12  C   UNL     1       3.536  43.668  52.606  1.00  0.00     0.273 C 
ATOM     13  O   UNL     1       4.321  43.547  51.627  1.00  0.00    -0.267 OA
ATOM     14  N   UNL     1       4.035  44.133  53.869  1.00  0.00    -0.347 N 
ATOM     15  H   UNL     1       3.375  44.325  54.654  1.00  0.00     0.164 HD
BRANCH  14  16
ATOM     16  C   UNL     1       5.439  44.492  54.045  1.00  0.00     0.090 C 
ATOM     17  C   UNL     1       5.672  45.399  55.251  1.00  0.00     0.036 C 
ATOM     18  C   UNL     1       5.723  45.975  53.839  1.00  0.00     0.044 C 
BRANCH  18  19
ATOM     19  C   UNL     1       7.094  46.352  53.306  1.00  0.00    -0.040 A 
ATOM     20  C   UNL     1       7.293  46.300  51.916  1.00  0.00     0.004 A 
ATOM     21  C   UNL     1       8.171  46.750  54.130  1.00  0.00     0.043 A 
ATOM     22  C   UNL     1       8.531  46.634  51.359  1.00  0.00     0.003 A 
ATOM     23  C   UNL     1       9.408  47.082  53.567  1.00  0.00     0.123 A 
ATOM     24  C   UNL     1       9.588  47.024  52.184  1.00  0.00     0.039 A 
ATOM     25  F   UNL     1      10.434  47.464  54.366  1.00  0.00    -0.207 F 
ENDBRANCH  18  19
ENDBRANCH  14  16
ENDBRANCH   3  12
TORSDOF 5
ENDMDL
MODEL 3
REMARK VINA RESULT:    -7.923      1.835      2.307
REMARK INTER + INTRA:         -10.607
REMARK INTER:                 -10.297
REMARK INTRA:                  -0.310
REMARK UNBOUND:                -0.369
REMARK SMILES CC1(Cn2cc(C(=O)N[C@@H]3C[C@H]3c3cccc(F)c3)nn2)COC1
REMARK SMILES IDX 4 1 5 2 6 3 20 4 21 5 3 6 2 7 22 8 24 9 23 10 1 11 7 12 8 13
REMARK SMILES IDX 9 14 10 16 11 17 12 18 13 19 14 20 19 21 15 22 17 23 16 24
REMARK SMILES IDX 18 25
REMARK H PARENT 9 15
ROOT
ATOM      1  N   UNL     1      -0.858  44.303  53.929  1.00  0.00    -0.251 N 
ATOM      2  C   UNL     1       0.369  44.840  53.812  1.00  0.00     0.145 A 
ATOM      3  C   UNL     1       1.227  43.786  53.576  1.00  0.00     0.170 A 
ATOM      4  N   UNL     1       0.506  42.647  53.573  1.00  0.00    -0.125 NA
ATOM      5  N   UNL     1      -0.755  42.990  53.795  1.00  0.00    -0.067 NA
ENDROOT
BRANCH   1   6
ATOM      6  C   UNL     1      -2.101  45.014  54.240  1.00  0.00     0.157 C 
BRANCH   6   7
ATOM      7  C   UNL     1      -2.332  45.246  55.758  1.00  0.00     0.034 C 
ATOM      8  C   UNL     1      -2.235  44.017  56.647  1.00  0.00     0.171 C 
ATOM      9  C   UNL     1      -1.115  45.693  56.550  1.00  0.00     0.171 C 
ATOM     10  O   UNL     1      -1.097  44.509  57.315  1.00  0.00    -0.380 OA
ATOM     11  C   UNL     1      -3.581  46.099  56.035  1.00  0.00     0.018 C 
ENDBRANCH   6   7
ENDBRANCH   1   6
BRANCH   3  12
ATOM     12  C   UNL     1       2.685  43.838  53.376  1.00  0.00     0.273 C 
ATOM     13  O   UNL     1       3.190  43.225  52.397  1.00  0.00    -0.267 OA
ATOM     14  N   UNL     1       3.531  44.573  54.273  1.00  0.00    -0.347 N 
ATOM     15  H   UNL     1       3.111  45.158  55.027  1.00  0.00     0.164 HD
BRANCH  14  16
ATOM     16  C   UNL     1       4.974  44.644  54.067  1.00  0.00     0.090 C 
ATOM     17  C   UNL     1       5.748  44.861  55.366  1.00  0.00     0.036 C 
ATOM     18  C   UNL     1       5.571  46.012  54.379  1.00  0.00     0.044 C 
BRANCH  18  19
ATOM     19  C   UNL     1       6.800  46.429  53.591  1.00  0.00    -0.040 A 
ATOM     20  C   UNL     1       6.724  46.389  52.189  1.00  0.00     0.004 A 
ATOM     21  C   UNL     1       8.008  46.851  54.192  1.00  0.00     0.043 A 
ATOM     22  C   UNL     1       7.820  46.760  51.403  1.00  0.00     0.003 A 
ATOM     23  C   UNL     1       9.101  47.221  53.402  1.00  0.00     0.123 A 
ATOM     24  C   UNL     1       9.007  47.175  52.009  1.00  0.00     0.039 A 
ATOM     25  F   UNL     1      10.254  47.627  53.988  1.00  0.00    -0.207 F 
ENDBRANCH  18  19
ENDBRANCH  14  16
ENDBRANCH   3  12
TORSDOF 5
ENDMDL
MODEL 4
REMARK VINA RESULT:    -7.832      5.284      7.640
REMARK INTER + INTRA:         -10.491
REMARK INTER:                 -10.162
REMARK INTRA:                  -0.328
REMARK UNBOUND:                -0.369
REMARK SMILES CC1(Cn2cc(C(=O)N[C@@H]3C[C@H]3c3cccc(F)c3)nn2)COC1
REMARK SMILES IDX 4 1 5 2 6 3 20 4 21 5 3 6 2 7 22 8 24 9 23 10 1 11 7 12 8 13
REMARK SMILES IDX 9 14 10 16 11 17 12 18 13 19 14 20 19 21 15 22 17 23 16 24
REMARK SMILES IDX 18 25
REMARK H PARENT 9 15
ROOT
ATOM      1  N   UNL     1       4.009  40.269  47.709  1.00  0.00    -0.251 N 
ATOM      2  C   UNL     1       4.913  41.193  48.082  1.00  0.00     0.145 A 
ATOM      3  C   UNL     1       4.675  41.443  49.417  1.00  0.00     0.170 A 
ATOM      4  N   UNL     1       3.633  40.684  49.810  1.00  0.00    -0.125 NA
ATOM      5  N   UNL     1       3.245  39.987  48.752  1.00  0.00    -0.067 NA
ENDROOT
BRANCH   1   6
ATOM      6  C   UNL     1       3.821  39.718  46.365  1.00  0.00     0.157 C 
BRANCH   6   7
ATOM      7  C   UNL     1       3.400  40.771  45.305  1.00  0.00     0.034 C 
ATOM      8  C   UNL     1       2.613  40.248  44.115  1.00  0.00     0.171 C 
ATOM      9  C   UNL     1       2.112  41.522  45.596  1.00  0.00     0.171 C 
ATOM     10  O   UNL     1       1.459  40.971  44.475  1.00  0.00    -0.380 OA
ATOM     11  C   UNL     1       4.562  41.695  44.906  1.00  0.00     0.018 C 
ENDBRANCH   6   7
ENDBRANCH   1   6
BRANCH   3  12
ATOM     12  C   UNL     1       5.391  42.379  50.300  1.00  0.00     0.273 C 
ATOM     13  O   UNL     1       6.640  42.267  50.425  1.00  0.00    -0.267 OA
ATOM     14  N   UNL     1       4.692  43.410  51.013  1.00  0.00    -0.347 N 
ATOM     15  H   UNL     1       3.675  43.568  50.840  1.00  0.00     0.164 HD
BRANCH  14  16
ATOM     16  C   UNL     1       5.399  44.352  51.874  1.00  0.00     0.090 C 
ATOM     17  C   UNL     1       4.763  45.741  51.882  1.00  0.00     0.036 C 
ATOM     18  C   UNL     1       6.060  45.498  51.115  1.00  0.00     0.044 C 
BRANCH  18  19
ATOM     19  C   UNL     1       7.326  46.088  51.712  1.00  0.00    -0.040 A 
ATOM     20  C   UNL     1       7.191  46.934  52.825  1.00  0.00     0.004 A 
ATOM     21  C   UNL     1       8.621  45.832  51.208  1.00  0.00     0.043 A 
ATOM     22  C   UNL     1       8.316  47.511  53.424  1.00  0.00     0.003 A 
ATOM     23  C   UNL     1       9.743  46.412  51.810  1.00  0.00     0.123 A 
ATOM     24  C   UNL     1       9.590  47.251  52.916  1.00  0.00     0.039 A 
ATOM     25  F   UNL     1      10.981  46.158  51.321  1.00  0.00    -0.207 F 
ENDBRANCH  18  19
ENDBRANCH  14  16
ENDBRANCH   3  12
TORSDOF 5
ENDMDL
MODEL 5
REMARK VINA RESULT:    -7.568      7.120      9.418
REMARK INTER + INTRA:         -10.150
REMARK INTER:                  -9.639
REMARK INTRA:                  -0.511
REMARK UNBOUND:                -0.369
REMARK SMILES CC1(Cn2cc(C(=O)N[C@@H]3C[C@H]3c3cccc(F)c3)nn2)COC1
REMARK SMILES IDX 4 1 5 2 6 3 20 4 21 5 3 6 2 7 22 8 24 9 23 10 1 11 7 12 8 13
REMARK SMILES IDX 9 14 10 16 11 17 12 18 13 19 14 20 19 21 15 22 17 23 16 24
REMARK SMILES IDX 18 25
REMARK H PARENT 9 15
ROOT
ATOM      1  N   UNL     1       2.799  39.348  45.979  1.00  0.00    -0.251 N 
ATOM      2  C   UNL     1       3.547  40.306  46.554  1.00  0.00     0.145 A 
ATOM      3  C   UNL     1       3.552  40.028  47.905  1.00  0.00     0.170 A 
ATOM      4  N   UNL     1       2.801  38.928  48.113  1.00  0.00    -0.125 NA
ATOM      5  N   UNL     1       2.352  38.541  46.928  1.00  0.00    -0.067 NA
ENDROOT
BRANCH   1   6
ATOM      6  C   UNL     1       2.448  39.241  44.561  1.00  0.00     0.157 C 
BRANCH   6   7
ATOM      7  C   UNL     1       3.582  38.661  43.673  1.00  0.00     0.034 C 
ATOM      8  C   UNL     1       3.288  38.567  42.185  1.00  0.00     0.171 C 
ATOM      9  C   UNL     1       4.638  39.654  43.218  1.00  0.00     0.171 C 
ATOM     10  O   UNL     1       4.282  39.512  41.862  1.00  0.00    -0.380 OA
ATOM     11  C   UNL     1       4.178  37.369  44.257  1.00  0.00     0.018 C 
ENDBRANCH   6   7
ENDBRANCH   1   6
BRANCH   3  12
ATOM     12  C   UNL     1       4.228  40.779  48.977  1.00  0.00     0.273 C 
ATOM     13  O   UNL     1       5.417  41.159  48.801  1.00  0.00    -0.267 OA
ATOM     14  N   UNL     1       3.556  41.081  50.208  1.00  0.00    -0.347 N 
ATOM     15  H   UNL     1       2.544  40.853  50.322  1.00  0.00     0.164 HD
BRANCH  14  16
ATOM     16  C   UNL     1       4.214  41.842  51.266  1.00  0.00     0.090 C 
ATOM     17  C   UNL     1       3.226  42.479  52.240  1.00  0.00     0.036 C 
ATOM     18  C   UNL     1       3.941  43.340  51.203  1.00  0.00     0.044 C 
BRANCH  18  19
ATOM     19  C   UNL     1       5.029  44.266  51.719  1.00  0.00    -0.040 A 
ATOM     20  C   UNL     1       5.072  44.521  53.100  1.00  0.00     0.004 A 
ATOM     21  C   UNL     1       5.992  44.881  50.888  1.00  0.00     0.043 A 
ATOM     22  C   UNL     1       6.047  45.363  53.642  1.00  0.00     0.003 A 
ATOM     23  C   UNL     1       6.965  45.724  51.434  1.00  0.00     0.123 A 
ATOM     24  C   UNL     1       6.992  45.965  52.809  1.00  0.00     0.039 A 
ATOM     25  F   UNL     1       7.886  46.307  50.628  1.00  0.00    -0.207 F 
ENDBRANCH  18  19
ENDBRANCH  14  16
ENDBRANCH   3  12
TORSDOF 5
ENDMDL
