MODEL 1
REMARK VINA RESULT:    -8.661      0.000      0.000
REMARK INTER + INTRA:         -10.293
REMARK INTER:                 -10.180
REMARK INTRA:                  -0.113
REMARK UNBOUND:                -0.113
REMARK SMILES CC1(C)NC(=O)C[C@H]1C(=O)N1CCC[C@]1(C)c1ccccc1
REMARK SMILES IDX 9 1 10 2 8 3 2 4 4 5 5 6 7 7 6 8 1 9 3 10 11 12 12 13 15 14
REMARK SMILES IDX 13 15 14 16 16 17 17 18 18 19 22 20 19 21 21 22 20 23
REMARK H PARENT 4 11
ROOT
ATOM      1  C   UNL     1       6.456  46.614  52.917  1.00  0.00     0.229 C 
ATOM      2  O   UNL     1       6.203  47.846  52.812  1.00  0.00    -0.274 OA
ENDROOT
BRANCH   1   3
ATOM      3  C   UNL     1       7.901  46.175  53.094  1.00  0.00     0.113 C 
ATOM      4  C   UNL     1       8.943  47.075  52.324  1.00  0.00     0.046 C 
ATOM      5  N   UNL     1       9.515  47.938  53.347  1.00  0.00    -0.350 N 
ATOM      6  C   UNL     1       9.176  47.452  54.627  1.00  0.00     0.221 C 
ATOM      7  C   UNL     1       8.305  46.259  54.585  1.00  0.00     0.116 C 
ATOM      8  O   UNL     1       9.612  47.968  55.689  1.00  0.00    -0.275 OA
ATOM      9  C   UNL     1       8.345  47.940  51.196  1.00  0.00     0.035 C 
ATOM     10  C   UNL     1      10.064  46.195  51.741  1.00  0.00     0.035 C 
ATOM     11  H   UNL     1      10.215  48.694  53.170  1.00  0.00     0.164 HD
ENDBRANCH   1   3
BRANCH   1  12
ATOM     12  N   UNL     1       5.376  45.657  52.837  1.00  0.00    -0.333 N 
ATOM     13  C   UNL     1       4.778  45.022  54.004  1.00  0.00     0.120 C 
ATOM     14  C   UNL     1       4.795  45.177  51.577  1.00  0.00     0.065 C 
ATOM     15  C   UNL     1       3.920  43.887  53.467  1.00  0.00     0.024 C 
ATOM     16  C   UNL     1       3.654  44.230  52.007  1.00  0.00     0.035 C 
ATOM     17  C   UNL     1       4.208  46.385  50.805  1.00  0.00     0.040 C 
BRANCH  14  18
ATOM     18  C   UNL     1       5.839  44.393  50.764  1.00  0.00    -0.023 A 
ATOM     19  C   UNL     1       6.930  45.036  50.138  1.00  0.00     0.006 A 
ATOM     20  C   UNL     1       5.667  43.010  50.539  1.00  0.00     0.006 A 
ATOM     21  C   UNL     1       7.845  44.307  49.370  1.00  0.00     0.000 A 
ATOM     22  C   UNL     1       6.585  42.288  49.773  1.00  0.00     0.000 A 
ATOM     23  C   UNL     1       7.677  42.934  49.195  1.00  0.00     0.000 A 
ENDBRANCH  14  18
ENDBRANCH   1  12
TORSDOF 3
ENDMDL
MODEL 2
REMARK VINA RESULT:    -8.420      2.723      5.855
REMARK INTER + INTRA:         -10.010
REMARK INTER:                  -9.870
REMARK INTRA:                  -0.140
REMARK UNBOUND:                -0.113
REMARK SMILES CC1(C)NC(=O)C[C@H]1C(=O)N1CCC[C@]1(C)c1ccccc1
REMARK SMILES IDX 9 1 10 2 8 3 2 4 4 5 5 6 7 7 6 8 1 9 3 10 11 12 12 13 15 14
REMARK SMILES IDX 13 15 14 16 16 17 17 18 18 19 22 20 19 21 21 22 20 23
REMARK H PARENT 4 11
ROOT
ATOM      1  C   UNL     1       4.563  44.706  51.992  1.00  0.00     0.229 C 
ATOM      2  O   UNL     1       5.084  44.755  50.844  1.00  0.00    -0.274 OA
ENDROOT
BRANCH   1   3
ATOM      3  C   UNL     1       3.899  43.415  52.442  1.00  0.00     0.113 C 
ATOM      4  C   UNL     1       2.424  43.235  51.913  1.00  0.00     0.046 C 
ATOM      5  N   UNL     1       2.540  42.302  50.802  1.00  0.00    -0.350 N 
ATOM      6  C   UNL     1       3.811  41.693  50.819  1.00  0.00     0.221 C 
ATOM      7  C   UNL     1       4.684  42.195  51.901  1.00  0.00     0.116 C 
ATOM      8  O   UNL     1       4.143  40.784  50.014  1.00  0.00    -0.275 OA
ATOM      9  C   UNL     1       1.745  44.532  51.428  1.00  0.00     0.035 C 
ATOM     10  C   UNL     1       1.551  42.591  53.006  1.00  0.00     0.035 C 
ATOM     11  H   UNL     1       1.748  41.995  50.193  1.00  0.00     0.164 HD
ENDBRANCH   1   3
BRANCH   1  12
ATOM     12  N   UNL     1       4.586  45.882  52.834  1.00  0.00    -0.333 N 
ATOM     13  C   UNL     1       3.622  46.969  52.722  1.00  0.00     0.120 C 
ATOM     14  C   UNL     1       5.607  46.139  53.857  1.00  0.00     0.065 C 
ATOM     15  C   UNL     1       4.183  48.109  53.556  1.00  0.00     0.024 C 
ATOM     16  C   UNL     1       5.175  47.467  54.516  1.00  0.00     0.035 C 
ATOM     17  C   UNL     1       5.565  44.998  54.904  1.00  0.00     0.040 C 
BRANCH  14  18
ATOM     18  C   UNL     1       6.991  46.310  53.209  1.00  0.00    -0.023 A 
ATOM     19  C   UNL     1       8.184  46.075  53.928  1.00  0.00     0.006 A 
ATOM     20  C   UNL     1       7.098  46.814  51.894  1.00  0.00     0.006 A 
ATOM     21  C   UNL     1       9.432  46.276  53.329  1.00  0.00     0.000 A 
ATOM     22  C   UNL     1       8.347  47.011  51.301  1.00  0.00     0.000 A 
ATOM     23  C   UNL     1       9.513  46.737  52.014  1.00  0.00     0.000 A 
ENDBRANCH  14  18
ENDBRANCH   1  12
TORSDOF 3
ENDMDL
MODEL 3
REMARK VINA RESULT:    -8.406      3.783      6.495
REMARK INTER + INTRA:          -9.993
REMARK INTER:                  -8.802
REMARK INTRA:                  -1.192
REMARK UNBOUND:                -0.113
REMARK SMILES CC1(C)NC(=O)C[C@H]1C(=O)N1CCC[C@]1(C)c1ccccc1
REMARK SMILES IDX 9 1 10 2 8 3 2 4 4 5 5 6 7 7 6 8 1 9 3 10 11 12 12 13 15 14
REMARK SMILES IDX 13 15 14 16 16 17 17 18 18 19 22 20 19 21 21 22 20 23
REMARK H PARENT 4 11
ROOT
ATOM      1  C   UNL     1       2.383  43.790  51.752  1.00  0.00     0.229 C 
ATOM      2  O   UNL     1       1.421  44.019  50.967  1.00  0.00    -0.274 OA
ENDROOT
BRANCH   1   3
ATOM      3  C   UNL     1       2.093  43.607  53.233  1.00  0.00     0.113 C 
ATOM      4  C   UNL     1       1.458  44.874  53.923  1.00  0.00     0.046 C 
ATOM      5  N   UNL     1       0.040  44.567  54.031  1.00  0.00    -0.350 N 
ATOM      6  C   UNL     1      -0.172  43.194  53.786  1.00  0.00     0.221 C 
ATOM      7  C   UNL     1       1.066  42.467  53.438  1.00  0.00     0.116 C 
ATOM      8  O   UNL     1      -1.301  42.649  53.897  1.00  0.00    -0.275 OA
ATOM      9  C   UNL     1       1.640  46.196  53.148  1.00  0.00     0.035 C 
ATOM     10  C   UNL     1       2.034  45.042  55.341  1.00  0.00     0.035 C 
ATOM     11  H   UNL     1      -0.688  45.217  54.407  1.00  0.00     0.164 HD
ENDBRANCH   1   3
BRANCH   1  12
ATOM     12  N   UNL     1       3.730  43.737  51.229  1.00  0.00    -0.333 N 
ATOM     13  C   UNL     1       4.327  42.532  50.669  1.00  0.00     0.120 C 
ATOM     14  C   UNL     1       4.664  44.870  51.251  1.00  0.00     0.065 C 
ATOM     15  C   UNL     1       5.812  42.828  50.533  1.00  0.00     0.024 C 
ATOM     16  C   UNL     1       5.931  44.347  50.539  1.00  0.00     0.035 C 
ATOM     17  C   UNL     1       4.053  46.037  50.438  1.00  0.00     0.040 C 
BRANCH  14  18
ATOM     18  C   UNL     1       5.008  45.259  52.698  1.00  0.00    -0.023 A 
ATOM     19  C   UNL     1       5.089  46.609  53.107  1.00  0.00     0.006 A 
ATOM     20  C   UNL     1       5.358  44.262  53.634  1.00  0.00     0.006 A 
ATOM     21  C   UNL     1       5.444  46.939  54.419  1.00  0.00     0.000 A 
ATOM     22  C   UNL     1       5.710  44.598  54.944  1.00  0.00     0.000 A 
ATOM     23  C   UNL     1       5.746  45.935  55.338  1.00  0.00     0.000 A 
ENDBRANCH  14  18
ENDBRANCH   1  12
TORSDOF 3
ENDMDL
MODEL 4
REMARK VINA RESULT:    -8.137      2.391      5.507
REMARK INTER + INTRA:          -9.676
REMARK INTER:                  -9.324
REMARK INTRA:                  -0.352
REMARK UNBOUND:                -0.113
REMARK SMILES CC1(C)NC(=O)C[C@H]1C(=O)N1CCC[C@]1(C)c1ccccc1
REMARK SMILES IDX 9 1 10 2 8 3 2 4 4 5 5 6 7 7 6 8 1 9 3 10 11 12 12 13 15 14
REMARK SMILES IDX 13 15 14 16 16 17 17 18 18 19 22 20 19 21 21 22 20 23
REMARK H PARENT 4 11
ROOT
ATOM      1  C   UNL     1       4.482  44.498  53.103  1.00  0.00     0.229 C 
ATOM      2  O   UNL     1       5.039  44.156  54.183  1.00  0.00    -0.274 OA
ENDROOT
BRANCH   1   3
ATOM      3  C   UNL     1       3.111  45.154  53.162  1.00  0.00     0.113 C 
ATOM      4  C   UNL     1       1.911  44.133  53.122  1.00  0.00     0.046 C 
ATOM      5  N   UNL     1       1.463  44.033  54.503  1.00  0.00    -0.350 N 
ATOM      6  C   UNL     1       2.030  45.075  55.266  1.00  0.00     0.221 C 
ATOM      7  C   UNL     1       2.949  45.932  54.489  1.00  0.00     0.116 C 
ATOM      8  O   UNL     1       1.742  45.267  56.476  1.00  0.00    -0.275 OA
ATOM      9  C   UNL     1       2.269  42.729  52.594  1.00  0.00     0.035 C 
ATOM     10  C   UNL     1       0.761  44.709  52.274  1.00  0.00     0.035 C 
ATOM     11  H   UNL     1       0.701  43.402  54.842  1.00  0.00     0.164 HD
ENDBRANCH   1   3
BRANCH   1  12
ATOM     12  N   UNL     1       5.145  44.234  51.846  1.00  0.00    -0.333 N 
ATOM     13  C   UNL     1       5.375  42.892  51.326  1.00  0.00     0.120 C 
ATOM     14  C   UNL     1       5.705  45.277  50.978  1.00  0.00     0.065 C 
ATOM     15  C   UNL     1       6.349  43.056  50.171  1.00  0.00     0.024 C 
ATOM     16  C   UNL     1       6.245  44.516  49.748  1.00  0.00     0.035 C 
ATOM     17  C   UNL     1       4.566  46.231  50.543  1.00  0.00     0.040 C 
BRANCH  14  18
ATOM     18  C   UNL     1       6.862  46.003  51.684  1.00  0.00    -0.023 A 
ATOM     19  C   UNL     1       6.636  46.907  52.746  1.00  0.00     0.006 A 
ATOM     20  C   UNL     1       8.184  45.858  51.208  1.00  0.00     0.006 A 
ATOM     21  C   UNL     1       7.701  47.586  53.346  1.00  0.00     0.000 A 
ATOM     22  C   UNL     1       9.244  46.538  51.813  1.00  0.00     0.000 A 
ATOM     23  C   UNL     1       9.004  47.396  52.886  1.00  0.00     0.000 A 
ENDBRANCH  14  18
ENDBRANCH   1  12
TORSDOF 3
ENDMDL
MODEL 5
REMARK VINA RESULT:    -8.110      2.145      5.384
REMARK INTER + INTRA:          -9.645
REMARK INTER:                  -9.662
REMARK INTRA:                   0.017
REMARK UNBOUND:                -0.113
REMARK SMILES CC1(C)NC(=O)C[C@H]1C(=O)N1CCC[C@]1(C)c1ccccc1
REMARK SMILES IDX 9 1 10 2 8 3 2 4 4 5 5 6 7 7 6 8 1 9 3 10 11 12 12 13 15 14
REMARK SMILES IDX 13 15 14 16 16 17 17 18 18 19 22 20 19 21 21 22 20 23
REMARK H PARENT 4 11
ROOT
ATOM      1  C   UNL     1       5.066  44.459  53.608  1.00  0.00     0.229 C 
ATOM      2  O   UNL     1       5.956  44.540  54.499  1.00  0.00    -0.274 OA
ENDROOT
BRANCH   1   3
ATOM      3  C   UNL     1       3.617  44.284  54.034  1.00  0.00     0.113 C 
ATOM      4  C   UNL     1       2.934  45.611  54.542  1.00  0.00     0.046 C 
ATOM      5  N   UNL     1       2.118  46.061  53.424  1.00  0.00    -0.350 N 
ATOM      6  C   UNL     1       1.998  45.026  52.473  1.00  0.00     0.221 C 
ATOM      7  C   UNL     1       2.762  43.813  52.833  1.00  0.00     0.116 C 
ATOM      8  O   UNL     1       1.277  45.125  51.446  1.00  0.00    -0.275 OA
ATOM      9  C   UNL     1       3.914  46.731  54.948  1.00  0.00     0.035 C 
ATOM     10  C   UNL     1       2.008  45.301  55.733  1.00  0.00     0.035 C 
ATOM     11  H   UNL     1       1.559  46.944  53.407  1.00  0.00     0.164 HD
ENDBRANCH   1   3
BRANCH   1  12
ATOM     12  N   UNL     1       5.449  44.505  52.215  1.00  0.00    -0.333 N 
ATOM     13  C   UNL     1       5.452  43.337  51.343  1.00  0.00     0.120 C 
ATOM     14  C   UNL     1       5.925  45.716  51.534  1.00  0.00     0.065 C 
ATOM     15  C   UNL     1       6.197  43.758  50.087  1.00  0.00     0.024 C 
ATOM     16  C   UNL     1       6.146  45.280  50.069  1.00  0.00     0.035 C 
ATOM     17  C   UNL     1       4.814  46.794  51.596  1.00  0.00     0.040 C 
BRANCH  14  18
ATOM     18  C   UNL     1       7.257  46.188  52.139  1.00  0.00    -0.023 A 
ATOM     19  C   UNL     1       7.302  47.077  53.237  1.00  0.00     0.006 A 
ATOM     20  C   UNL     1       8.478  45.819  51.535  1.00  0.00     0.006 A 
ATOM     21  C   UNL     1       8.526  47.524  53.744  1.00  0.00     0.000 A 
ATOM     22  C   UNL     1       9.698  46.267  52.049  1.00  0.00     0.000 A 
ATOM     23  C   UNL     1       9.723  47.114  53.156  1.00  0.00     0.000 A 
ENDBRANCH  14  18
ENDBRANCH   1  12
TORSDOF 3
ENDMDL
