ligand_86_conformer_1_docked
     RDKit          3D

 44 47  0  0  0  0  0  0  0  0999 V2000
    2.3020   44.7660   55.5720 O   0  0  0  0  0  0  0  0  0  0  0  0
    1.6510   44.9080   54.5010 C   0  0  0  0  0  0  0  0  0  0  0  0
    0.2290   44.7000   54.5020 N   0  0  0  0  0  0  0  0  0  0  0  0
   -0.5350   44.5610   55.7460 C   0  0  0  0  0  0  0  0  0  0  0  0
   -1.8310   43.7700   55.5060 C   0  0  0  0  0  0  0  0  0  0  0  0
   -2.6800   43.6960   56.7980 C   0  0  0  0  0  0  0  0  0  0  0  0
   -2.2460   44.5920   57.8090 O   0  0  0  0  0  0  0  0  0  0  0  0
   -2.0840   45.8900   57.2740 C   0  0  0  0  0  0  0  0  0  0  0  0
   -0.8650   45.9480   56.3330 C   0  0  0  0  0  0  0  0  0  0  0  0
    2.3700   45.2670   53.2560 C   0  0  0  0  0  0  0  0  0  0  0  0
    1.6700   45.3980   52.0460 C   0  0  0  0  0  0  0  0  0  0  0  0
    2.3290   45.7200   50.9030 N   0  0  0  0  0  0  0  0  0  0  0  0
    3.6720   45.9170   50.8790 C   0  0  0  0  0  0  0  0  0  0  0  0
    4.4300   45.7880   52.0530 C   0  0  0  0  0  0  0  0  0  0  0  0
    5.9000   45.9920   52.0370 C   0  0  0  0  0  0  0  0  0  0  0  0
    6.6580   45.6780   50.8800 C   0  0  0  0  0  0  0  0  0  0  0  0
    8.0480   45.8700   50.8590 C   0  0  0  0  0  0  0  0  0  0  0  0
    8.6600   46.3780   52.0020 C   0  0  0  0  0  0  0  0  0  0  0  0
    7.9470   46.6840   53.1220 C   0  0  0  0  0  0  0  0  0  0  0  0
    6.5640   46.5050   53.1760 C   0  0  0  0  0  0  0  0  0  0  0  0
    8.8570   47.2070   54.1750 C   0  0  0  0  0  0  0  0  0  0  0  0
   10.2410   47.1520   53.4820 C   0  0  0  0  0  0  0  0  0  0  0  0
   10.0020   46.6350   52.1720 O   0  0  0  0  0  0  0  0  0  0  0  0
    3.7620   45.4560   53.2440 C   0  0  0  0  0  0  0  0  0  0  0  0
   -0.2630   44.5750   53.5890 H   0  0  0  0  0  0  0  0  0  0  0  0
    0.0844   44.0067   56.4665 H   0  0  0  0  0  0  0  0  0  0  0  0
   -2.4161   44.2676   54.7186 H   0  0  0  0  0  0  0  0  0  0  0  0
   -1.5669   42.7470   55.1999 H   0  0  0  0  0  0  0  0  0  0  0  0
   -3.7231   43.9355   56.5441 H   0  0  0  0  0  0  0  0  0  0  0  0
   -2.5733   42.6773   57.1990 H   0  0  0  0  0  0  0  0  0  0  0  0
   -2.9880   46.1625   56.7097 H   0  0  0  0  0  0  0  0  0  0  0  0
   -1.9221   46.5945   58.1031 H   0  0  0  0  0  0  0  0  0  0  0  0
   -1.0835   46.6420   55.5080 H   0  0  0  0  0  0  0  0  0  0  0  0
    0.0031   46.2908   56.9151 H   0  0  0  0  0  0  0  0  0  0  0  0
    0.5818   45.2389   52.0237 H   0  0  0  0  0  0  0  0  0  0  0  0
    4.1691   46.1794   49.9335 H   0  0  0  0  0  0  0  0  0  0  0  0
    6.1506   45.2795   49.9891 H   0  0  0  0  0  0  0  0  0  0  0  0
    8.6383   45.6257   49.9635 H   0  0  0  0  0  0  0  0  0  0  0  0
    6.0011   46.7579   54.0866 H   0  0  0  0  0  0  0  0  0  0  0  0
    8.5924   48.2380   54.4525 H   0  0  0  0  0  0  0  0  0  0  0  0
    8.8144   46.6354   55.1139 H   0  0  0  0  0  0  0  0  0  0  0  0
   10.6792   48.1592   53.4219 H   0  0  0  0  0  0  0  0  0  0  0  0
   10.9486   46.5228   54.0419 H   0  0  0  0  0  0  0  0  0  0  0  0
    4.3349   45.3430   54.1762 H   0  0  0  0  0  0  0  0  0  0  0  0
  1  2  2  0
  2  3  1  0
  3  4  1  0
  4  5  1  0
  5  6  1  0
  6  7  1  0
  7  8  1  0
  8  9  1  0
  2 10  1  0
 10 11  2  0
 11 12  1  0
 12 13  2  0
 13 14  1  0
 14 15  1  0
 15 16  2  0
 16 17  1  0
 17 18  2  0
 18 19  1  0
 19 20  2  0
 19 21  1  0
 21 22  1  0
 22 23  1  0
 14 24  2  0
  9  4  1  0
 24 10  1  0
 20 15  1  0
 23 18  1  0
  3 25  1  0
  4 26  1  0
  5 27  1  0
  5 28  1  0
  6 29  1  0
  6 30  1  0
  8 31  1  0
  8 32  1  0
  9 33  1  0
  9 34  1  0
 11 35  1  0
 13 36  1  0
 16 37  1  0
 17 38  1  0
 20 39  1  0
 21 40  1  0
 21 41  1  0
 22 42  1  0
 22 43  1  0
 24 44  1  0
M  END
>  <meeko>  (1) 
{"is_sidechain": [false], "free_energy": -8.539, "intermolecular_energy": -10.037, "internal_energy": -0.56}

$$$$
ligand_86_conformer_1_docked
     RDKit          3D

 44 47  0  0  0  0  0  0  0  0999 V2000
    1.6480   42.6890   51.0340 O   0  0  0  0  0  0  0  0  0  0  0  0
    1.1960   43.8590   51.1630 C   0  0  0  0  0  0  0  0  0  0  0  0
   -0.1710   44.1350   50.8140 N   0  0  0  0  0  0  0  0  0  0  0  0
   -1.1330   43.0630   50.5360 C   0  0  0  0  0  0  0  0  0  0  0  0
   -2.1290   43.4910   49.4470 C   0  0  0  0  0  0  0  0  0  0  0  0
   -3.1980   42.3970   49.2130 C   0  0  0  0  0  0  0  0  0  0  0  0
   -3.2100   41.3980   50.2230 O   0  0  0  0  0  0  0  0  0  0  0  0
   -3.2390   41.9990   51.5020 C   0  0  0  0  0  0  0  0  0  0  0  0
   -1.8920   42.6750   51.8210 C   0  0  0  0  0  0  0  0  0  0  0  0
    2.0910   44.9330   51.6550 C   0  0  0  0  0  0  0  0  0  0  0  0
    1.5610   46.0380   52.3390 C   0  0  0  0  0  0  0  0  0  0  0  0
    2.3790   47.0270   52.7840 N   0  0  0  0  0  0  0  0  0  0  0  0
    3.7210   46.9950   52.5800 C   0  0  0  0  0  0  0  0  0  0  0  0
    4.3090   45.9230   51.8920 C   0  0  0  0  0  0  0  0  0  0  0  0
    5.7750   45.8820   51.6560 C   0  0  0  0  0  0  0  0  0  0  0  0
    6.2990   45.2610   50.4940 C   0  0  0  0  0  0  0  0  0  0  0  0
    7.6840   45.2210   50.2660 C   0  0  0  0  0  0  0  0  0  0  0  0
    8.5240   45.8070   51.2080 C   0  0  0  0  0  0  0  0  0  0  0  0
    8.0370   46.4080   52.3290 C   0  0  0  0  0  0  0  0  0  0  0  0
    6.6660   46.4650   52.5870 C   0  0  0  0  0  0  0  0  0  0  0  0
    9.1570   46.9470   53.1440 C   0  0  0  0  0  0  0  0  0  0  0  0
   10.4000   46.5540   52.3080 C   0  0  0  0  0  0  0  0  0  0  0  0
    9.8990   45.8710   51.1590 O   0  0  0  0  0  0  0  0  0  0  0  0
    3.4760   44.8920   51.4260 C   0  0  0  0  0  0  0  0  0  0  0  0
   -0.4680   45.1280   50.6860 H   0  0  0  0  0  0  0  0  0  0  0  0
   -0.5735   42.1881   50.1733 H   0  0  0  0  0  0  0  0  0  0  0  0
   -2.6276   44.4201   49.7605 H   0  0  0  0  0  0  0  0  0  0  0  0
   -1.5767   43.6480   48.5088 H   0  0  0  0  0  0  0  0  0  0  0  0
   -4.1877   42.8763   49.1842 H   0  0  0  0  0  0  0  0  0  0  0  0
   -2.9514   41.8981   48.2642 H   0  0  0  0  0  0  0  0  0  0  0  0
   -4.0368   42.7559   51.5265 H   0  0  0  0  0  0  0  0  0  0  0  0
   -3.4277   41.2183   52.2536 H   0  0  0  0  0  0  0  0  0  0  0  0
   -2.0797   43.5831   52.4127 H   0  0  0  0  0  0  0  0  0  0  0  0
   -1.2732   41.9604   52.3835 H   0  0  0  0  0  0  0  0  0  0  0  0
    0.4773   46.1035   52.5157 H   0  0  0  0  0  0  0  0  0  0  0  0
    4.3509   47.8145   52.9564 H   0  0  0  0  0  0  0  0  0  0  0  0
    5.6136   44.8060   49.7638 H   0  0  0  0  0  0  0  0  0  0  0  0
    8.0942   44.7391   49.3663 H   0  0  0  0  0  0  0  0  0  0  0  0
    6.2863   46.9537   53.4964 H   0  0  0  0  0  0  0  0  0  0  0  0
    9.0800   48.0389   53.2525 H   0  0  0  0  0  0  0  0  0  0  0  0
    9.1787   46.5561   54.1720 H   0  0  0  0  0  0  0  0  0  0  0  0
   10.9576   47.4528   52.0059 H   0  0  0  0  0  0  0  0  0  0  0  0
   11.0908   45.9212   52.8846 H   0  0  0  0  0  0  0  0  0  0  0  0
    3.9127   44.0449   50.8767 H   0  0  0  0  0  0  0  0  0  0  0  0
  1  2  2  0
  2  3  1  0
  3  4  1  0
  4  5  1  0
  5  6  1  0
  6  7  1  0
  7  8  1  0
  8  9  1  0
  2 10  1  0
 10 11  2  0
 11 12  1  0
 12 13  2  0
 13 14  1  0
 14 15  1  0
 15 16  2  0
 16 17  1  0
 17 18  2  0
 18 19  1  0
 19 20  2  0
 19 21  1  0
 21 22  1  0
 22 23  1  0
 14 24  2  0
  9  4  1  0
 24 10  1  0
 20 15  1  0
 23 18  1  0
  3 25  1  0
  4 26  1  0
  5 27  1  0
  5 28  1  0
  6 29  1  0
  6 30  1  0
  8 31  1  0
  8 32  1  0
  9 33  1  0
  9 34  1  0
 11 35  1  0
 13 36  1  0
 16 37  1  0
 17 38  1  0
 20 39  1  0
 21 40  1  0
 21 41  1  0
 22 42  1  0
 22 43  1  0
 24 44  1  0
M  END
>  <meeko>  (2) 
{"is_sidechain": [false], "free_energy": -8.435, "intermolecular_energy": -9.907, "internal_energy": -0.567}

$$$$
ligand_86_conformer_1_docked
     RDKit          3D

 44 47  0  0  0  0  0  0  0  0999 V2000
    1.3990   42.4030   53.3520 O   0  0  0  0  0  0  0  0  0  0  0  0
    1.1550   43.6280   53.5280 C   0  0  0  0  0  0  0  0  0  0  0  0
   -0.1450   44.1480   53.2010 N   0  0  0  0  0  0  0  0  0  0  0  0
   -1.2780   43.2690   52.8930 C   0  0  0  0  0  0  0  0  0  0  0  0
   -1.3850   43.0260   51.3800 C   0  0  0  0  0  0  0  0  0  0  0  0
   -2.6300   42.1700   51.0440 C   0  0  0  0  0  0  0  0  0  0  0  0
   -3.5390   42.0490   52.1280 O   0  0  0  0  0  0  0  0  0  0  0  0
   -3.8180   43.3220   52.6750 C   0  0  0  0  0  0  0  0  0  0  0  0
   -2.5910   43.8790   53.4230 C   0  0  0  0  0  0  0  0  0  0  0  0
    2.2230   44.5130   54.0510 C   0  0  0  0  0  0  0  0  0  0  0  0
    2.0330   45.2200   55.2480 C   0  0  0  0  0  0  0  0  0  0  0  0
    3.0090   46.0380   55.7240 N   0  0  0  0  0  0  0  0  0  0  0  0
    4.1850   46.2100   55.0680 C   0  0  0  0  0  0  0  0  0  0  0  0
    4.4290   45.5410   53.8600 C   0  0  0  0  0  0  0  0  0  0  0  0
    5.7080   45.7290   53.1290 C   0  0  0  0  0  0  0  0  0  0  0  0
    5.7740   45.5220   51.7280 C   0  0  0  0  0  0  0  0  0  0  0  0
    6.9810   45.7010   51.0330 C   0  0  0  0  0  0  0  0  0  0  0  0
    8.1060   46.0860   51.7560 C   0  0  0  0  0  0  0  0  0  0  0  0
    8.0600   46.2880   53.1020 C   0  0  0  0  0  0  0  0  0  0  0  0
    6.8770   46.1200   53.8230 C   0  0  0  0  0  0  0  0  0  0  0  0
    9.4000   46.6950   53.6000 C   0  0  0  0  0  0  0  0  0  0  0  0
   10.2540   46.6930   52.3080 C   0  0  0  0  0  0  0  0  0  0  0  0
    9.3690   46.3110   51.2550 O   0  0  0  0  0  0  0  0  0  0  0  0
    3.4300   44.6910   53.3550 C   0  0  0  0  0  0  0  0  0  0  0  0
   -0.2670   45.1820   53.1130 H   0  0  0  0  0  0  0  0  0  0  0  0
   -1.1062   42.3032   53.3907 H   0  0  0  0  0  0  0  0  0  0  0  0
   -1.4642   43.9945   50.8645 H   0  0  0  0  0  0  0  0  0  0  0  0
   -0.4868   42.4854   51.0468 H   0  0  0  0  0  0  0  0  0  0  0  0
   -3.1560   42.6363   50.1979 H   0  0  0  0  0  0  0  0  0  0  0  0
   -2.2734   41.1575   50.8040 H   0  0  0  0  0  0  0  0  0  0  0  0
   -4.0883   44.0121   51.8622 H   0  0  0  0  0  0  0  0  0  0  0  0
   -4.6500   43.2240   53.3878 H   0  0  0  0  0  0  0  0  0  0  0  0
   -2.5569   44.9704   53.2898 H   0  0  0  0  0  0  0  0  0  0  0  0
   -2.6879   43.6158   54.4867 H   0  0  0  0  0  0  0  0  0  0  0  0
    1.0900   45.1119   55.8039 H   0  0  0  0  0  0  0  0  0  0  0  0
    4.9516   46.8786   55.4868 H   0  0  0  0  0  0  0  0  0  0  0  0
    4.8702   45.2180   51.1796 H   0  0  0  0  0  0  0  0  0  0  0  0
    7.0358   45.5412   49.9461 H   0  0  0  0  0  0  0  0  0  0  0  0
    6.8540   46.2883   54.9098 H   0  0  0  0  0  0  0  0  0  0  0  0
    9.3679   47.6966   54.0535 H   0  0  0  0  0  0  0  0  0  0  0  0
    9.7941   46.0347   54.3866 H   0  0  0  0  0  0  0  0  0  0  0  0
   10.6637   47.6961   52.1185 H   0  0  0  0  0  0  0  0  0  0  0  0
   11.1072   46.0035   52.3888 H   0  0  0  0  0  0  0  0  0  0  0  0
    3.5950   44.1602   52.4058 H   0  0  0  0  0  0  0  0  0  0  0  0
  1  2  2  0
  2  3  1  0
  3  4  1  0
  4  5  1  0
  5  6  1  0
  6  7  1  0
  7  8  1  0
  8  9  1  0
  2 10  1  0
 10 11  2  0
 11 12  1  0
 12 13  2  0
 13 14  1  0
 14 15  1  0
 15 16  2  0
 16 17  1  0
 17 18  2  0
 18 19  1  0
 19 20  2  0
 19 21  1  0
 21 22  1  0
 22 23  1  0
 14 24  2  0
  9  4  1  0
 24 10  1  0
 20 15  1  0
 23 18  1  0
  3 25  1  0
  4 26  1  0
  5 27  1  0
  5 28  1  0
  6 29  1  0
  6 30  1  0
  8 31  1  0
  8 32  1  0
  9 33  1  0
  9 34  1  0
 11 35  1  0
 13 36  1  0
 16 37  1  0
 17 38  1  0
 20 39  1  0
 21 40  1  0
 21 41  1  0
 22 42  1  0
 22 43  1  0
 24 44  1  0
M  END
>  <meeko>  (3) 
{"is_sidechain": [false], "free_energy": -8.121, "intermolecular_energy": -9.558, "internal_energy": -0.547}

$$$$
ligand_86_conformer_1_docked
     RDKit          3D

 44 47  0  0  0  0  0  0  0  0999 V2000
    6.1470   44.0210   51.1530 O   0  0  0  0  0  0  0  0  0  0  0  0
    5.4240   44.4180   52.1070 C   0  0  0  0  0  0  0  0  0  0  0  0
    5.9700   45.3160   53.0870 N   0  0  0  0  0  0  0  0  0  0  0  0
    7.2640   45.9810   52.8950 C   0  0  0  0  0  0  0  0  0  0  0  0
    7.7700   46.5820   54.2160 C   0  0  0  0  0  0  0  0  0  0  0  0
    9.0900   47.3580   54.0000 C   0  0  0  0  0  0  0  0  0  0  0  0
    9.3850   47.5970   52.6310 O   0  0  0  0  0  0  0  0  0  0  0  0
    8.2570   48.1420   51.9770 C   0  0  0  0  0  0  0  0  0  0  0  0
    7.1480   47.0840   51.8240 C   0  0  0  0  0  0  0  0  0  0  0  0
    4.0270   43.9310   52.2100 C   0  0  0  0  0  0  0  0  0  0  0  0
    3.4840   43.1190   51.2030 C   0  0  0  0  0  0  0  0  0  0  0  0
    2.2020   42.6790   51.2930 N   0  0  0  0  0  0  0  0  0  0  0  0
    1.4010   43.0080   52.3390 C   0  0  0  0  0  0  0  0  0  0  0  0
    1.8820   43.8280   53.3710 C   0  0  0  0  0  0  0  0  0  0  0  0
    1.0130   44.2020   54.5150 C   0  0  0  0  0  0  0  0  0  0  0  0
    1.5530   44.8750   55.6400 C   0  0  0  0  0  0  0  0  0  0  0  0
    0.7340   45.2310   56.7230 C   0  0  0  0  0  0  0  0  0  0  0  0
   -0.6180   44.9090   56.6610 C   0  0  0  0  0  0  0  0  0  0  0  0
   -1.1540   44.2630   55.5870 C   0  0  0  0  0  0  0  0  0  0  0  0
   -0.3680   43.8940   54.4950 C   0  0  0  0  0  0  0  0  0  0  0  0
   -2.6110   44.0560   55.7940 C   0  0  0  0  0  0  0  0  0  0  0  0
   -2.8460   44.6920   57.1870 C   0  0  0  0  0  0  0  0  0  0  0  0
   -1.5740   45.1760   57.6160 O   0  0  0  0  0  0  0  0  0  0  0  0
    3.2070   44.2900   53.2930 C   0  0  0  0  0  0  0  0  0  0  0  0
    5.4640   45.4440   53.9920 H   0  0  0  0  0  0  0  0  0  0  0  0
    7.9886   45.2270   52.5537 H   0  0  0  0  0  0  0  0  0  0  0  0
    7.0090   47.2696   54.6135 H   0  0  0  0  0  0  0  0  0  0  0  0
    7.9564   45.7627   54.9260 H   0  0  0  0  0  0  0  0  0  0  0  0
    9.0133   48.3271   54.5148 H   0  0  0  0  0  0  0  0  0  0  0  0
    9.9026   46.7365   54.4042 H   0  0  0  0  0  0  0  0  0  0  0  0
    7.8710   48.9861   52.5674 H   0  0  0  0  0  0  0  0  0  0  0  0
    8.5604   48.4815   50.9757 H   0  0  0  0  0  0  0  0  0  0  0  0
    6.1692   47.5760   51.9229 H   0  0  0  0  0  0  0  0  0  0  0  0
    7.2539   46.6152   50.8345 H   0  0  0  0  0  0  0  0  0  0  0  0
    4.0996   42.8372   50.3360 H   0  0  0  0  0  0  0  0  0  0  0  0
    0.3689   42.6294   52.3775 H   0  0  0  0  0  0  0  0  0  0  0  0
    2.6249   45.1207   55.6644 H   0  0  0  0  0  0  0  0  0  0  0  0
    1.1505   45.7512   57.5982 H   0  0  0  0  0  0  0  0  0  0  0  0
   -0.8135   43.3733   53.6345 H   0  0  0  0  0  0  0  0  0  0  0  0
   -3.1993   44.5686   55.0187 H   0  0  0  0  0  0  0  0  0  0  0  0
   -2.9163   43.0008   55.7368 H   0  0  0  0  0  0  0  0  0  0  0  0
   -3.5654   45.5208   57.1127 H   0  0  0  0  0  0  0  0  0  0  0  0
   -3.2616   43.9633   57.8986 H   0  0  0  0  0  0  0  0  0  0  0  0
    3.6057   44.9385   54.0870 H   0  0  0  0  0  0  0  0  0  0  0  0
  1  2  2  0
  2  3  1  0
  3  4  1  0
  4  5  1  0
  5  6  1  0
  6  7  1  0
  7  8  1  0
  8  9  1  0
  2 10  1  0
 10 11  2  0
 11 12  1  0
 12 13  2  0
 13 14  1  0
 14 15  1  0
 15 16  2  0
 16 17  1  0
 17 18  2  0
 18 19  1  0
 19 20  2  0
 19 21  1  0
 21 22  1  0
 22 23  1  0
 14 24  2  0
  9  4  1  0
 24 10  1  0
 20 15  1  0
 23 18  1  0
  3 25  1  0
  4 26  1  0
  5 27  1  0
  5 28  1  0
  6 29  1  0
  6 30  1  0
  8 31  1  0
  8 32  1  0
  9 33  1  0
  9 34  1  0
 11 35  1  0
 13 36  1  0
 16 37  1  0
 17 38  1  0
 20 39  1  0
 21 40  1  0
 21 41  1  0
 22 42  1  0
 22 43  1  0
 24 44  1  0
M  END
>  <meeko>  (4) 
{"is_sidechain": [false], "free_energy": -8.008, "intermolecular_energy": -9.444, "internal_energy": -0.529}

$$$$
ligand_86_conformer_1_docked
     RDKit          3D

 44 47  0  0  0  0  0  0  0  0999 V2000
    5.6060   41.1690   48.9500 O   0  0  0  0  0  0  0  0  0  0  0  0
    4.3890   41.3280   49.2430 C   0  0  0  0  0  0  0  0  0  0  0  0
    3.3750   40.7680   48.3920 N   0  0  0  0  0  0  0  0  0  0  0  0
    3.6960   39.8150   47.3240 C   0  0  0  0  0  0  0  0  0  0  0  0
    3.5240   40.4650   45.9420 C   0  0  0  0  0  0  0  0  0  0  0  0
    3.7780   39.4380   44.8130 C   0  0  0  0  0  0  0  0  0  0  0  0
    3.8180   38.0950   45.2720 O   0  0  0  0  0  0  0  0  0  0  0  0
    2.6940   37.8240   46.0860 C   0  0  0  0  0  0  0  0  0  0  0  0
    2.8010   38.5640   47.4330 C   0  0  0  0  0  0  0  0  0  0  0  0
    4.0290   42.1090   50.4500 C   0  0  0  0  0  0  0  0  0  0  0  0
    2.7700   41.9460   51.0490 C   0  0  0  0  0  0  0  0  0  0  0  0
    2.4360   42.6670   52.1510 N   0  0  0  0  0  0  0  0  0  0  0  0
    3.2870   43.5680   52.7050 C   0  0  0  0  0  0  0  0  0  0  0  0
    4.5550   43.7860   52.1440 C   0  0  0  0  0  0  0  0  0  0  0  0
    5.4890   44.7760   52.7360 C   0  0  0  0  0  0  0  0  0  0  0  0
    5.4150   45.1010   54.1150 C   0  0  0  0  0  0  0  0  0  0  0  0
    6.2980   46.0360   54.6790 C   0  0  0  0  0  0  0  0  0  0  0  0
    7.2450   46.6310   53.8500 C   0  0  0  0  0  0  0  0  0  0  0  0
    7.3300   46.3300   52.5240 C   0  0  0  0  0  0  0  0  0  0  0  0
    6.4680   45.4060   51.9320 C   0  0  0  0  0  0  0  0  0  0  0  0
    8.4290   47.1090   51.8970 C   0  0  0  0  0  0  0  0  0  0  0  0
    8.9810   47.9320   53.0870 C   0  0  0  0  0  0  0  0  0  0  0  0
    8.1920   47.5620   54.2180 O   0  0  0  0  0  0  0  0  0  0  0  0
    4.9150   43.0470   51.0040 C   0  0  0  0  0  0  0  0  0  0  0  0
    2.3900   41.1030   48.4930 H   0  0  0  0  0  0  0  0  0  0  0  0
    4.7475   39.5134   47.4400 H   0  0  0  0  0  0  0  0  0  0  0  0
    2.4987   40.8532   45.8517 H   0  0  0  0  0  0  0  0  0  0  0  0
    4.2542   41.2819   45.8446 H   0  0  0  0  0  0  0  0  0  0  0  0
    2.9714   39.5291   44.0706 H   0  0  0  0  0  0  0  0  0  0  0  0
    4.7651   39.6644   44.3836 H   0  0  0  0  0  0  0  0  0  0  0  0
    1.7835   38.1544   45.5647 H   0  0  0  0  0  0  0  0  0  0  0  0
    2.6533   36.7422   46.2810 H   0  0  0  0  0  0  0  0  0  0  0  0
    1.7943   38.8720   47.7520 H   0  0  0  0  0  0  0  0  0  0  0  0
    3.2535   37.8801   48.1662 H   0  0  0  0  0  0  0  0  0  0  0  0
    2.0502   41.2309   50.6240 H   0  0  0  0  0  0  0  0  0  0  0  0
    2.9809   44.1308   53.5992 H   0  0  0  0  0  0  0  0  0  0  0  0
    4.6583   44.6157   54.7489 H   0  0  0  0  0  0  0  0  0  0  0  0
    6.2429   46.2915   55.7475 H   0  0  0  0  0  0  0  0  0  0  0  0
    6.5482   45.1718   50.8602 H   0  0  0  0  0  0  0  0  0  0  0  0
    9.2007   46.4439   51.4822 H   0  0  0  0  0  0  0  0  0  0  0  0
    8.0981   47.7301   51.0516 H   0  0  0  0  0  0  0  0  0  0  0  0
   10.0392   47.6884   53.2625 H   0  0  0  0  0  0  0  0  0  0  0  0
    8.9244   49.0130   52.8913 H   0  0  0  0  0  0  0  0  0  0  0  0
    5.9004   43.2049   50.5413 H   0  0  0  0  0  0  0  0  0  0  0  0
  1  2  2  0
  2  3  1  0
  3  4  1  0
  4  5  1  0
  5  6  1  0
  6  7  1  0
  7  8  1  0
  8  9  1  0
  2 10  1  0
 10 11  2  0
 11 12  1  0
 12 13  2  0
 13 14  1  0
 14 15  1  0
 15 16  2  0
 16 17  1  0
 17 18  2  0
 18 19  1  0
 19 20  2  0
 19 21  1  0
 21 22  1  0
 22 23  1  0
 14 24  2  0
  9  4  1  0
 24 10  1  0
 20 15  1  0
 23 18  1  0
  3 25  1  0
  4 26  1  0
  5 27  1  0
  5 28  1  0
  6 29  1  0
  6 30  1  0
  8 31  1  0
  8 32  1  0
  9 33  1  0
  9 34  1  0
 11 35  1  0
 13 36  1  0
 16 37  1  0
 17 38  1  0
 20 39  1  0
 21 40  1  0
 21 41  1  0
 22 42  1  0
 22 43  1  0
 24 44  1  0
M  END
>  <meeko>  (5) 
{"is_sidechain": [false], "free_energy": -7.99, "intermolecular_energy": -9.377, "internal_energy": -0.574}

$$$$
