ligand_39_conformer_2_docked
     RDKit          3D

 49 52  0  0  0  0  0  0  0  0999 V2000
    7.5840   45.3520   49.9240 C   0  0  0  0  0  0  0  0  0  0  0  0
    8.7280   45.3080   50.8360 N   0  0  0  0  0  0  0  0  0  0  0  0
    9.9380   44.5830   50.4520 C   0  0  0  0  0  0  0  0  0  0  0  0
    8.6890   46.0110   52.0890 C   0  0  0  0  0  0  0  0  0  0  0  0
    9.8790   46.4960   52.6670 C   0  0  0  0  0  0  0  0  0  0  0  0
    9.8510   47.2000   53.8850 C   0  0  0  0  0  0  0  0  0  0  0  0
    8.6360   47.4260   54.5450 C   0  0  0  0  0  0  0  0  0  0  0  0
    7.4700   46.9340   53.9650 C   0  0  0  0  0  0  0  0  0  0  0  0
    5.9030   47.0410   54.5520 S   0  0  0  0  0  0  0  0  0  0  0  0
    5.2020   46.1820   53.2730 C   0  0  0  0  0  0  0  0  0  0  0  0
    3.7670   45.8700   53.1280 C   0  0  0  0  0  0  0  0  0  0  0  0
    2.9630   46.8030   52.8590 O   0  0  0  0  0  0  0  0  0  0  0  0
    3.2850   44.5240   53.2910 N   0  0  0  0  0  0  0  0  0  0  0  0
    1.8670   44.1360   53.1510 C   0  0  2  0  0  0  0  0  0  0  0  0
    1.1110   44.4610   54.4440 C   0  0  0  0  0  0  0  0  0  0  0  0
    1.7710   44.8650   55.6250 C   0  0  0  0  0  0  0  0  0  0  0  0
    1.0430   45.1970   56.7710 C   0  0  0  0  0  0  0  0  0  0  0  0
   -0.3510   45.1540   56.7540 C   0  0  0  0  0  0  0  0  0  0  0  0
   -1.0230   44.7900   55.5870 C   0  0  0  0  0  0  0  0  0  0  0  0
   -0.3000   44.4570   54.4370 C   0  0  0  0  0  0  0  0  0  0  0  0
    1.7650   42.6830   52.6860 C   0  0  0  0  0  0  0  0  0  0  0  0
    1.9690   42.7580   51.1820 C   0  0  0  0  0  0  0  0  0  0  0  0
    1.5740   44.0980   50.7410 N   0  0  0  0  0  0  0  0  0  0  0  0
    1.2420   44.8600   51.9470 C   0  0  0  0  0  0  0  0  0  0  0  0
    6.2010   45.8030   52.3740 C   0  0  0  0  0  0  0  0  0  0  0  0
    7.4770   46.2370   52.7660 C   0  0  0  0  0  0  0  0  0  0  0  0
    6.6517   45.3879   50.5067 H   0  0  0  0  0  0  0  0  0  0  0  0
    7.6548   46.2481   49.2900 H   0  0  0  0  0  0  0  0  0  0  0  0
    7.5858   44.4531   49.2900 H   0  0  0  0  0  0  0  0  0  0  0  0
   10.4752   44.2611   51.3564 H   0  0  0  0  0  0  0  0  0  0  0  0
    9.6630   43.7007   49.8553 H   0  0  0  0  0  0  0  0  0  0  0  0
   10.5863   45.2416   49.8553 H   0  0  0  0  0  0  0  0  0  0  0  0
   10.8400   46.3224   52.1607 H   0  0  0  0  0  0  0  0  0  0  0  0
   10.7884   47.5751   54.3215 H   0  0  0  0  0  0  0  0  0  0  0  0
    8.6042   47.9775   55.4962 H   0  0  0  0  0  0  0  0  0  0  0  0
    3.9840   43.7810   53.5180 H   0  0  0  0  0  0  0  0  0  0  0  0
    2.8695   44.9190   55.6434 H   0  0  0  0  0  0  0  0  0  0  0  0
    1.5712   45.4932   57.6893 H   0  0  0  0  0  0  0  0  0  0  0  0
   -0.9203   45.4070   57.6606 H   0  0  0  0  0  0  0  0  0  0  0  0
   -2.1226   44.7649   55.5712 H   0  0  0  0  0  0  0  0  0  0  0  0
   -0.8379   44.1887   53.5158 H   0  0  0  0  0  0  0  0  0  0  0  0
    2.5464   42.0673   53.1555 H   0  0  0  0  0  0  0  0  0  0  0  0
    0.8053   42.2197   52.9585 H   0  0  0  0  0  0  0  0  0  0  0  0
    3.0271   42.5812   50.9390 H   0  0  0  0  0  0  0  0  0  0  0  0
    1.3632   41.9931   50.6742 H   0  0  0  0  0  0  0  0  0  0  0  0
    2.3990   44.5530   50.2820 H   0  0  0  0  0  0  0  0  0  0  0  0
    1.6508   45.8783   51.8699 H   0  0  0  0  0  0  0  0  0  0  0  0
    0.1509   44.9310   52.0669 H   0  0  0  0  0  0  0  0  0  0  0  0
    6.0087   45.2264   51.4572 H   0  0  0  0  0  0  0  0  0  0  0  0
  1  2  1  0
  2  3  1  0
  2  4  1  0
  4  5  2  0
  5  6  1  0
  6  7  2  0
  7  8  1  0
  8  9  1  0
  9 10  1  0
 10 11  1  0
 11 12  2  0
 11 13  1  0
 14 13  1  1
 14 15  1  0
 15 16  2  0
 16 17  1  0
 17 18  2  0
 18 19  1  0
 19 20  2  0
 14 21  1  0
 21 22  1  0
 22 23  1  0
 23 24  1  0
 10 25  2  0
 25 26  1  0
 26  4  1  0
 26  8  2  0
 24 14  1  0
 20 15  1  0
  1 27  1  0
  1 28  1  0
  1 29  1  0
  3 30  1  0
  3 31  1  0
  3 32  1  0
  5 33  1  0
  6 34  1  0
  7 35  1  0
 13 36  1  0
 16 37  1  0
 17 38  1  0
 18 39  1  0
 19 40  1  0
 20 41  1  0
 21 42  1  0
 21 43  1  0
 22 44  1  0
 22 45  1  0
 23 46  1  0
 24 47  1  0
 24 48  1  0
 25 49  1  0
M  END
>  <meeko>  (1) 
{"is_sidechain": [false], "free_energy": -8.859, "intermolecular_energy": -10.931, "internal_energy": 0.734}

$$$$
ligand_39_conformer_2_docked
     RDKit          3D

 49 52  0  0  0  0  0  0  0  0999 V2000
   -0.1480   44.5490   51.5470 C   0  0  0  0  0  0  0  0  0  0  0  0
    0.0610   43.7380   52.7480 N   0  0  0  0  0  0  0  0  0  0  0  0
    0.0900   42.2800   52.6450 C   0  0  0  0  0  0  0  0  0  0  0  0
    0.2850   44.3640   54.0210 C   0  0  0  0  0  0  0  0  0  0  0  0
   -0.7950   44.5940   54.8980 C   0  0  0  0  0  0  0  0  0  0  0  0
   -0.5860   45.1910   56.1540 C   0  0  0  0  0  0  0  0  0  0  0  0
    0.7020   45.5720   56.5520 C   0  0  0  0  0  0  0  0  0  0  0  0
    1.7570   45.3460   55.6730 C   0  0  0  0  0  0  0  0  0  0  0  0
    3.3760   45.7270   55.8860 S   0  0  0  0  0  0  0  0  0  0  0  0
    3.8700   45.1470   54.3730 C   0  0  0  0  0  0  0  0  0  0  0  0
    5.2490   45.1690   53.8500 C   0  0  0  0  0  0  0  0  0  0  0  0
    6.0990   44.3770   54.3380 O   0  0  0  0  0  0  0  0  0  0  0  0
    5.6260   46.0790   52.8000 N   0  0  0  0  0  0  0  0  0  0  0  0
    6.9820   46.1490   52.2210 C   0  0  2  0  0  0  0  0  0  0  0  0
    7.0980   45.1660   51.0510 C   0  0  0  0  0  0  0  0  0  0  0  0
    8.2730   45.0470   50.2770 C   0  0  0  0  0  0  0  0  0  0  0  0
    8.3550   44.1070   49.2460 C   0  0  0  0  0  0  0  0  0  0  0  0
    7.2810   43.2570   48.9830 C   0  0  0  0  0  0  0  0  0  0  0  0
    6.1230   43.3380   49.7580 C   0  0  0  0  0  0  0  0  0  0  0  0
    6.0350   44.2760   50.7910 C   0  0  0  0  0  0  0  0  0  0  0  0
    8.0310   45.9770   53.3210 C   0  0  0  0  0  0  0  0  0  0  0  0
    8.1460   47.3580   53.9450 C   0  0  0  0  0  0  0  0  0  0  0  0
    7.7410   48.3420   52.9370 N   0  0  0  0  0  0  0  0  0  0  0  0
    7.2850   47.5870   51.7680 C   0  0  0  0  0  0  0  0  0  0  0  0
    2.7590   44.6520   53.6880 C   0  0  0  0  0  0  0  0  0  0  0  0
    1.5720   44.7590   54.4290 C   0  0  0  0  0  0  0  0  0  0  0  0
   -0.4126   45.5759   51.8395 H   0  0  0  0  0  0  0  0  0  0  0  0
    0.7755   44.5643   50.9496 H   0  0  0  0  0  0  0  0  0  0  0  0
   -0.9639   44.1161   50.9496 H   0  0  0  0  0  0  0  0  0  0  0  0
    0.0987   41.8413   53.6537 H   0  0  0  0  0  0  0  0  0  0  0  0
   -0.8014   41.9330   52.1019 H   0  0  0  0  0  0  0  0  0  0  0  0
    0.9945   41.9687   52.1019 H   0  0  0  0  0  0  0  0  0  0  0  0
   -1.8121   44.3033   54.5964 H   0  0  0  0  0  0  0  0  0  0  0  0
   -1.4389   45.3598   56.8279 H   0  0  0  0  0  0  0  0  0  0  0  0
    0.8749   46.0376   57.5335 H   0  0  0  0  0  0  0  0  0  0  0  0
    4.8910   46.7220   52.4270 H   0  0  0  0  0  0  0  0  0  0  0  0
    9.1323   45.7006   50.4876 H   0  0  0  0  0  0  0  0  0  0  0  0
    9.2701   44.0373   48.6396 H   0  0  0  0  0  0  0  0  0  0  0  0
    7.3465   42.5236   48.1658 H   0  0  0  0  0  0  0  0  0  0  0  0
    5.2784   42.6629   49.5557 H   0  0  0  0  0  0  0  0  0  0  0  0
    5.1258   44.3205   51.4085 H   0  0  0  0  0  0  0  0  0  0  0  0
    7.6982   45.2389   54.0656 H   0  0  0  0  0  0  0  0  0  0  0  0
    8.9920   45.6084   52.9331 H   0  0  0  0  0  0  0  0  0  0  0  0
    7.4860   47.4281   54.8222 H   0  0  0  0  0  0  0  0  0  0  0  0
    9.1794   47.5465   54.2715 H   0  0  0  0  0  0  0  0  0  0  0  0
    6.9290   48.8860   53.3140 H   0  0  0  0  0  0  0  0  0  0  0  0
    6.3751   48.0486   51.3569 H   0  0  0  0  0  0  0  0  0  0  0  0
    8.0594   47.5869   50.9868 H   0  0  0  0  0  0  0  0  0  0  0  0
    2.8086   44.2240   52.6759 H   0  0  0  0  0  0  0  0  0  0  0  0
  1  2  1  0
  2  3  1  0
  2  4  1  0
  4  5  2  0
  5  6  1  0
  6  7  2  0
  7  8  1  0
  8  9  1  0
  9 10  1  0
 10 11  1  0
 11 12  2  0
 11 13  1  0
 14 13  1  1
 14 15  1  0
 15 16  2  0
 16 17  1  0
 17 18  2  0
 18 19  1  0
 19 20  2  0
 14 21  1  0
 21 22  1  0
 22 23  1  0
 23 24  1  0
 10 25  2  0
 25 26  1  0
 26  4  1  0
 26  8  2  0
 24 14  1  0
 20 15  1  0
  1 27  1  0
  1 28  1  0
  1 29  1  0
  3 30  1  0
  3 31  1  0
  3 32  1  0
  5 33  1  0
  6 34  1  0
  7 35  1  0
 13 36  1  0
 16 37  1  0
 17 38  1  0
 18 39  1  0
 19 40  1  0
 20 41  1  0
 21 42  1  0
 21 43  1  0
 22 44  1  0
 22 45  1  0
 23 46  1  0
 24 47  1  0
 24 48  1  0
 25 49  1  0
M  END
>  <meeko>  (2) 
{"is_sidechain": [false], "free_energy": -8.812, "intermolecular_energy": -10.194, "internal_energy": 0.055}

$$$$
ligand_39_conformer_2_docked
     RDKit          3D

 49 52  0  0  0  0  0  0  0  0999 V2000
    0.7080   44.9290   57.1110 C   0  0  0  0  0  0  0  0  0  0  0  0
   -0.4630   45.5020   56.4460 N   0  0  0  0  0  0  0  0  0  0  0  0
   -1.1260   46.6730   57.0190 C   0  0  0  0  0  0  0  0  0  0  0  0
   -0.9410   44.9520   55.2070 C   0  0  0  0  0  0  0  0  0  0  0  0
   -2.2420   44.4160   55.1240 C   0  0  0  0  0  0  0  0  0  0  0  0
   -2.7260   43.8900   53.9130 C   0  0  0  0  0  0  0  0  0  0  0  0
   -1.9180   43.8870   52.7680 C   0  0  0  0  0  0  0  0  0  0  0  0
   -0.6330   44.4120   52.8680 C   0  0  0  0  0  0  0  0  0  0  0  0
    0.5380   44.5060   51.6710 S   0  0  0  0  0  0  0  0  0  0  0  0
    1.7130   45.2170   52.6620 C   0  0  0  0  0  0  0  0  0  0  0  0
    3.0770   45.5940   52.2460 C   0  0  0  0  0  0  0  0  0  0  0  0
    3.2240   46.3620   51.2580 O   0  0  0  0  0  0  0  0  0  0  0  0
    4.2270   45.0940   52.9520 N   0  0  0  0  0  0  0  0  0  0  0  0
    5.6200   45.4360   52.6010 C   0  0  2  0  0  0  0  0  0  0  0  0
    6.0550   44.6350   51.3690 C   0  0  0  0  0  0  0  0  0  0  0  0
    7.1480   45.0220   50.5620 C   0  0  0  0  0  0  0  0  0  0  0  0
    7.5420   44.2400   49.4730 C   0  0  0  0  0  0  0  0  0  0  0  0
    6.8710   43.0520   49.1820 C   0  0  0  0  0  0  0  0  0  0  0  0
    5.8100   42.6370   49.9860 C   0  0  0  0  0  0  0  0  0  0  0  0
    5.4110   43.4140   51.0780 C   0  0  0  0  0  0  0  0  0  0  0  0
    6.5220   45.2860   53.8260 C   0  0  0  0  0  0  0  0  0  0  0  0
    6.3220   46.5800   54.5970 C   0  0  0  0  0  0  0  0  0  0  0  0
    5.9020   47.6100   53.6440 N   0  0  0  0  0  0  0  0  0  0  0  0
    5.7400   46.9480   52.3480 C   0  0  0  0  0  0  0  0  0  0  0  0
    1.1890   45.3830   53.9450 C   0  0  0  0  0  0  0  0  0  0  0  0
   -0.1360   44.9350   54.0540 C   0  0  0  0  0  0  0  0  0  0  0  0
    0.5781   44.9926   58.2015 H   0  0  0  0  0  0  0  0  0  0  0  0
    0.8183   43.8751   56.8157 H   0  0  0  0  0  0  0  0  0  0  0  0
    1.6078   45.4886   56.8157 H   0  0  0  0  0  0  0  0  0  0  0  0
   -1.0920   46.6130   58.1168 H   0  0  0  0  0  0  0  0  0  0  0  0
   -0.6107   47.5859   56.6856 H   0  0  0  0  0  0  0  0  0  0  0  0
   -2.1739   46.7008   56.6856 H   0  0  0  0  0  0  0  0  0  0  0  0
   -2.8856   44.4091   56.0161 H   0  0  0  0  0  0  0  0  0  0  0  0
   -3.7449   43.4784   53.8642 H   0  0  0  0  0  0  0  0  0  0  0  0
   -2.2895   43.4806   51.8157 H   0  0  0  0  0  0  0  0  0  0  0  0
    4.0610   44.4560   53.7630 H   0  0  0  0  0  0  0  0  0  0  0  0
    7.6944   45.9483   50.7932 H   0  0  0  0  0  0  0  0  0  0  0  0
    8.3842   44.5623   48.8430 H   0  0  0  0  0  0  0  0  0  0  0  0
    7.1787   42.4432   48.3190 H   0  0  0  0  0  0  0  0  0  0  0  0
    5.2858   41.6965   49.7608 H   0  0  0  0  0  0  0  0  0  0  0  0
    4.5852   43.0691   51.7177 H   0  0  0  0  0  0  0  0  0  0  0  0
    6.2167   44.4199   54.4316 H   0  0  0  0  0  0  0  0  0  0  0  0
    7.5745   45.1150   53.5558 H   0  0  0  0  0  0  0  0  0  0  0  0
    5.5462   46.4420   55.3645 H   0  0  0  0  0  0  0  0  0  0  0  0
    7.2558   46.8773   55.0966 H   0  0  0  0  0  0  0  0  0  0  0  0
    4.9670   47.9770   53.9430 H   0  0  0  0  0  0  0  0  0  0  0  0
    4.8307   47.3170   51.8509 H   0  0  0  0  0  0  0  0  0  0  0  0
    6.6023   47.1605   51.6989 H   0  0  0  0  0  0  0  0  0  0  0  0
    1.7548   45.8187   54.7817 H   0  0  0  0  0  0  0  0  0  0  0  0
  1  2  1  0
  2  3  1  0
  2  4  1  0
  4  5  2  0
  5  6  1  0
  6  7  2  0
  7  8  1  0
  8  9  1  0
  9 10  1  0
 10 11  1  0
 11 12  2  0
 11 13  1  0
 14 13  1  1
 14 15  1  0
 15 16  2  0
 16 17  1  0
 17 18  2  0
 18 19  1  0
 19 20  2  0
 14 21  1  0
 21 22  1  0
 22 23  1  0
 23 24  1  0
 10 25  2  0
 25 26  1  0
 26  4  1  0
 26  8  2  0
 24 14  1  0
 20 15  1  0
  1 27  1  0
  1 28  1  0
  1 29  1  0
  3 30  1  0
  3 31  1  0
  3 32  1  0
  5 33  1  0
  6 34  1  0
  7 35  1  0
 13 36  1  0
 16 37  1  0
 17 38  1  0
 18 39  1  0
 19 40  1  0
 20 41  1  0
 21 42  1  0
 21 43  1  0
 22 44  1  0
 22 45  1  0
 23 46  1  0
 24 47  1  0
 24 48  1  0
 25 49  1  0
M  END
>  <meeko>  (3) 
{"is_sidechain": [false], "free_energy": -8.708, "intermolecular_energy": -10.164, "internal_energy": 0.154}

$$$$
ligand_39_conformer_2_docked
     RDKit          3D

 49 52  0  0  0  0  0  0  0  0999 V2000
   -2.0770   42.7130   51.9160 C   0  0  0  0  0  0  0  0  0  0  0  0
   -2.2930   43.9980   52.5830 N   0  0  0  0  0  0  0  0  0  0  0  0
   -2.9910   45.0740   51.8810 C   0  0  0  0  0  0  0  0  0  0  0  0
   -1.8640   44.1970   53.9400 C   0  0  0  0  0  0  0  0  0  0  0  0
   -2.7580   43.9680   55.0060 C   0  0  0  0  0  0  0  0  0  0  0  0
   -2.3440   44.1430   56.3400 C   0  0  0  0  0  0  0  0  0  0  0  0
   -1.0360   44.5540   56.6280 C   0  0  0  0  0  0  0  0  0  0  0  0
   -0.1680   44.7840   55.5640 C   0  0  0  0  0  0  0  0  0  0  0  0
    1.4250   45.3020   55.6270 S   0  0  0  0  0  0  0  0  0  0  0  0
    1.6440   45.3290   53.9480 C   0  0  0  0  0  0  0  0  0  0  0  0
    2.8810   45.7200   53.2460 C   0  0  0  0  0  0  0  0  0  0  0  0
    2.8470   46.6920   52.4440 O   0  0  0  0  0  0  0  0  0  0  0  0
    4.1120   45.0080   53.4680 N   0  0  0  0  0  0  0  0  0  0  0  0
    5.3890   45.3480   52.8100 C   0  0  2  0  0  0  0  0  0  0  0  0
    5.6250   44.4110   51.6210 C   0  0  0  0  0  0  0  0  0  0  0  0
    6.6430   44.6410   50.6690 C   0  0  0  0  0  0  0  0  0  0  0  0
    6.8570   43.7380   49.6230 C   0  0  0  0  0  0  0  0  0  0  0  0
    6.0780   42.5860   49.5200 C   0  0  0  0  0  0  0  0  0  0  0  0
    5.0890   42.3250   50.4690 C   0  0  0  0  0  0  0  0  0  0  0  0
    4.8710   43.2230   51.5180 C   0  0  0  0  0  0  0  0  0  0  0  0
    6.5160   45.3860   53.8430 C   0  0  0  0  0  0  0  0  0  0  0  0
    6.3930   46.7600   54.4790 C   0  0  0  0  0  0  0  0  0  0  0  0
    5.7390   47.6460   53.5120 N   0  0  0  0  0  0  0  0  0  0  0  0
    5.3710   46.8190   52.3610 C   0  0  0  0  0  0  0  0  0  0  0  0
    0.4590   44.9310   53.3260 C   0  0  0  0  0  0  0  0  0  0  0  0
   -0.5570   44.6180   54.2420 C   0  0  0  0  0  0  0  0  0  0  0  0
   -1.9446   41.9251   52.6721 H   0  0  0  0  0  0  0  0  0  0  0  0
   -2.9478   42.4753   51.2873 H   0  0  0  0  0  0  0  0  0  0  0  0
   -1.1763   42.7730   51.2873 H   0  0  0  0  0  0  0  0  0  0  0  0
   -3.4370   45.7616   52.6147 H   0  0  0  0  0  0  0  0  0  0  0  0
   -2.2771   45.6238   51.2501 H   0  0  0  0  0  0  0  0  0  0  0  0
   -3.7840   44.6462   51.2501 H   0  0  0  0  0  0  0  0  0  0  0  0
   -3.7891   43.6495   54.7931 H   0  0  0  0  0  0  0  0  0  0  0  0
   -3.0517   43.9559   57.1611 H   0  0  0  0  0  0  0  0  0  0  0  0
   -0.7035   44.6914   57.6675 H   0  0  0  0  0  0  0  0  0  0  0  0
    4.0950   44.2060   54.1380 H   0  0  0  0  0  0  0  0  0  0  0  0
    7.2732   45.5388   50.7513 H   0  0  0  0  0  0  0  0  0  0  0  0
    7.6424   43.9370   48.8790 H   0  0  0  0  0  0  0  0  0  0  0  0
    6.2432   41.8828   48.6904 H   0  0  0  0  0  0  0  0  0  0  0  0
    4.4804   41.4120   50.3917 H   0  0  0  0  0  0  0  0  0  0  0  0
    4.1020   43.0006   52.2725 H   0  0  0  0  0  0  0  0  0  0  0  0
    6.3824   44.5946   54.5952 H   0  0  0  0  0  0  0  0  0  0  0  0
    7.5055   45.2172   53.3931 H   0  0  0  0  0  0  0  0  0  0  0  0
    5.7880   46.6951   55.3954 H   0  0  0  0  0  0  0  0  0  0  0  0
    7.3866   47.1497   54.7454 H   0  0  0  0  0  0  0  0  0  0  0  0
    4.8590   48.0170   53.9450 H   0  0  0  0  0  0  0  0  0  0  0  0
    4.3638   47.0909   52.0123 H   0  0  0  0  0  0  0  0  0  0  0  0
    6.0798   46.9758   51.5345 H   0  0  0  0  0  0  0  0  0  0  0  0
    0.3351   44.8694   52.2347 H   0  0  0  0  0  0  0  0  0  0  0  0
  1  2  1  0
  2  3  1  0
  2  4  1  0
  4  5  2  0
  5  6  1  0
  6  7  2  0
  7  8  1  0
  8  9  1  0
  9 10  1  0
 10 11  1  0
 11 12  2  0
 11 13  1  0
 14 13  1  1
 14 15  1  0
 15 16  2  0
 16 17  1  0
 17 18  2  0
 18 19  1  0
 19 20  2  0
 14 21  1  0
 21 22  1  0
 22 23  1  0
 23 24  1  0
 10 25  2  0
 25 26  1  0
 26  4  1  0
 26  8  2  0
 24 14  1  0
 20 15  1  0
  1 27  1  0
  1 28  1  0
  1 29  1  0
  3 30  1  0
  3 31  1  0
  3 32  1  0
  5 33  1  0
  6 34  1  0
  7 35  1  0
 13 36  1  0
 16 37  1  0
 17 38  1  0
 18 39  1  0
 19 40  1  0
 20 41  1  0
 21 42  1  0
 21 43  1  0
 22 44  1  0
 22 45  1  0
 23 46  1  0
 24 47  1  0
 24 48  1  0
 25 49  1  0
M  END
>  <meeko>  (4) 
{"is_sidechain": [false], "free_energy": -8.679, "intermolecular_energy": -10.025, "internal_energy": 0.05}

$$$$
ligand_39_conformer_2_docked
     RDKit          3D

 49 52  0  0  0  0  0  0  0  0999 V2000
    5.7550   46.9520   52.4110 C   0  0  0  0  0  0  0  0  0  0  0  0
    6.9710   46.5080   51.7270 N   0  0  0  0  0  0  0  0  0  0  0  0
    8.2110   47.2660   51.8810 C   0  0  0  0  0  0  0  0  0  0  0  0
    6.9670   45.3050   50.9410 C   0  0  0  0  0  0  0  0  0  0  0  0
    8.0510   45.0110   50.0880 C   0  0  0  0  0  0  0  0  0  0  0  0
    8.0650   43.8280   49.3260 C   0  0  0  0  0  0  0  0  0  0  0  0
    6.9970   42.9250   49.4000 C   0  0  0  0  0  0  0  0  0  0  0  0
    5.9310   43.2330   50.2400 C   0  0  0  0  0  0  0  0  0  0  0  0
    4.5290   42.3470   50.4930 S   0  0  0  0  0  0  0  0  0  0  0  0
    3.8460   43.4500   51.5820 C   0  0  0  0  0  0  0  0  0  0  0  0
    2.5340   43.3090   52.2420 C   0  0  0  0  0  0  0  0  0  0  0  0
    2.2970   42.2690   52.9140 O   0  0  0  0  0  0  0  0  0  0  0  0
    1.5350   44.3380   52.1240 N   0  0  0  0  0  0  0  0  0  0  0  0
    0.2070   44.2710   52.7650 C   0  0  2  0  0  0  0  0  0  0  0  0
    0.3320   44.6100   54.2550 C   0  0  0  0  0  0  0  0  0  0  0  0
    1.5020   45.1770   54.8050 C   0  0  0  0  0  0  0  0  0  0  0  0
    1.5620   45.5140   56.1600 C   0  0  0  0  0  0  0  0  0  0  0  0
    0.4540   45.3120   56.9830 C   0  0  0  0  0  0  0  0  0  0  0  0
   -0.7220   44.7830   56.4510 C   0  0  0  0  0  0  0  0  0  0  0  0
   -0.7890   44.4440   55.0960 C   0  0  0  0  0  0  0  0  0  0  0  0
   -0.4560   42.9280   52.4570 C   0  0  0  0  0  0  0  0  0  0  0  0
   -1.0520   43.1160   51.0720 C   0  0  0  0  0  0  0  0  0  0  0  0
   -1.2960   44.5480   50.8780 N   0  0  0  0  0  0  0  0  0  0  0  0
   -0.7650   45.2310   52.0590 C   0  0  0  0  0  0  0  0  0  0  0  0
    4.7200   44.5260   51.7520 C   0  0  0  0  0  0  0  0  0  0  0  0
    5.8970   44.3940   50.9990 C   0  0  0  0  0  0  0  0  0  0  0  0
    5.9056   46.8970   53.4993 H   0  0  0  0  0  0  0  0  0  0  0  0
    5.5310   47.9899   52.1238 H   0  0  0  0  0  0  0  0  0  0  0  0
    4.9149   46.3026   52.1238 H   0  0  0  0  0  0  0  0  0  0  0  0
    8.4289   47.3992   52.9510 H   0  0  0  0  0  0  0  0  0  0  0  0
    9.0372   46.7184   51.4040 H   0  0  0  0  0  0  0  0  0  0  0  0
    8.1003   48.2510   51.4040 H   0  0  0  0  0  0  0  0  0  0  0  0
    8.8943   45.7138   50.0176 H   0  0  0  0  0  0  0  0  0  0  0  0
    8.9197   43.6112   48.6684 H   0  0  0  0  0  0  0  0  0  0  0  0
    7.0007   41.9968   48.8097 H   0  0  0  0  0  0  0  0  0  0  0  0
    1.7710   45.1820   51.5550 H   0  0  0  0  0  0  0  0  0  0  0  0
    2.3754   45.3554   54.1605 H   0  0  0  0  0  0  0  0  0  0  0  0
    2.4858   45.9398   56.5788 H   0  0  0  0  0  0  0  0  0  0  0  0
    0.5076   45.5697   58.0510 H   0  0  0  0  0  0  0  0  0  0  0  0
   -1.5983   44.6322   57.0986 H   0  0  0  0  0  0  0  0  0  0  0  0
   -1.7258   44.0436   54.6811 H   0  0  0  0  0  0  0  0  0  0  0  0
    0.2874   42.1172   52.4551 H   0  0  0  0  0  0  0  0  0  0  0  0
   -1.2112   42.6490   53.2066 H   0  0  0  0  0  0  0  0  0  0  0  0
   -0.3487   42.7499   50.3095 H   0  0  0  0  0  0  0  0  0  0  0  0
   -1.9911   42.5509   50.9787 H   0  0  0  0  0  0  0  0  0  0  0  0
   -0.7500   44.8660   50.0420 H   0  0  0  0  0  0  0  0  0  0  0  0
   -0.2327   46.1442   51.7545 H   0  0  0  0  0  0  0  0  0  0  0  0
   -1.5833   45.5141   52.7374 H   0  0  0  0  0  0  0  0  0  0  0  0
    4.5086   45.3849   52.4060 H   0  0  0  0  0  0  0  0  0  0  0  0
  1  2  1  0
  2  3  1  0
  2  4  1  0
  4  5  2  0
  5  6  1  0
  6  7  2  0
  7  8  1  0
  8  9  1  0
  9 10  1  0
 10 11  1  0
 11 12  2  0
 11 13  1  0
 14 13  1  6
 14 15  1  0
 15 16  2  0
 16 17  1  0
 17 18  2  0
 18 19  1  0
 19 20  2  0
 14 21  1  0
 21 22  1  0
 22 23  1  0
 23 24  1  0
 10 25  2  0
 25 26  1  0
 26  4  1  0
 26  8  2  0
 24 14  1  0
 20 15  1  0
  1 27  1  0
  1 28  1  0
  1 29  1  0
  3 30  1  0
  3 31  1  0
  3 32  1  0
  5 33  1  0
  6 34  1  0
  7 35  1  0
 13 36  1  0
 16 37  1  0
 17 38  1  0
 18 39  1  0
 19 40  1  0
 20 41  1  0
 21 42  1  0
 21 43  1  0
 22 44  1  0
 22 45  1  0
 23 46  1  0
 24 47  1  0
 24 48  1  0
 25 49  1  0
M  END
>  <meeko>  (5) 
{"is_sidechain": [false], "free_energy": -8.376, "intermolecular_energy": -10.395, "internal_energy": 0.793}

$$$$
