ligand_15_conformer_1_docked
     RDKit          3D

 46 48  0  0  0  0  0  0  0  0999 V2000
   11.0910   47.5170   56.2200 C   0  0  0  0  0  0  0  0  0  0  0  0
    9.8380   47.8790   55.6470 O   0  0  0  0  0  0  0  0  0  0  0  0
    9.3780   47.4310   54.4000 C   0  0  0  0  0  0  0  0  0  0  0  0
   10.3040   46.8610   53.5180 C   0  0  0  0  0  0  0  0  0  0  0  0
    9.8960   46.3900   52.2690 C   0  0  0  0  0  0  0  0  0  0  0  0
    8.5560   46.4850   51.8880 C   0  0  0  0  0  0  0  0  0  0  0  0
    7.6130   47.0610   52.7550 C   0  0  0  0  0  0  0  0  0  0  0  0
    6.1540   47.0980   52.3740 C   0  0  0  0  0  0  0  0  0  0  0  0
    5.4130   45.8330   52.8290 C   0  0  0  0  0  0  0  0  0  0  0  0
    5.0890   44.9370   51.6680 C   0  0  0  0  0  0  0  0  0  0  0  0
    4.8920   45.4480   50.5320 O   0  0  0  0  0  0  0  0  0  0  0  0
    5.1080   43.5110   51.8400 N   0  0  0  0  0  0  0  0  0  0  0  0
    4.9190   42.5720   50.7700 C   0  0  0  0  0  0  0  0  0  0  0  0
    5.8850   42.4040   49.7630 C   0  0  0  0  0  0  0  0  0  0  0  0
    5.6690   41.4980   48.7210 C   0  0  0  0  0  0  0  0  0  0  0  0
    4.4840   40.7430   48.6680 C   0  0  0  0  0  0  0  0  0  0  0  0
    4.2280   39.8230   47.5940 N   0  0  0  0  0  0  0  0  0  0  0  0
    3.1770   39.9820   46.6290 C   0  0  0  0  0  0  0  0  0  0  0  0
    2.2280   39.0200   46.4660 N   0  0  0  0  0  0  0  0  0  0  0  0
    1.2130   39.1780   45.5770 C   0  0  0  0  0  0  0  0  0  0  0  0
    1.1290   40.3460   44.8200 C   0  0  0  0  0  0  0  0  0  0  0  0
    2.1010   41.3270   45.0060 C   0  0  0  0  0  0  0  0  0  0  0  0
    3.1000   41.1320   45.9050 N   0  0  0  0  0  0  0  0  0  0  0  0
    3.5030   40.9450   49.6500 C   0  0  0  0  0  0  0  0  0  0  0  0
    3.7190   41.8510   50.6920 C   0  0  0  0  0  0  0  0  0  0  0  0
    8.0280   47.5280   54.0130 C   0  0  0  0  0  0  0  0  0  0  0  0
   11.0127   47.5396   57.3170 H   0  0  0  0  0  0  0  0  0  0  0  0
   11.3646   46.5031   55.8927 H   0  0  0  0  0  0  0  0  0  0  0  0
   11.8632   48.2288   55.8927 H   0  0  0  0  0  0  0  0  0  0  0  0
   11.3613   46.7838   53.8116 H   0  0  0  0  0  0  0  0  0  0  0  0
   10.6313   45.9432   51.5837 H   0  0  0  0  0  0  0  0  0  0  0  0
    8.2377   46.1073   50.9051 H   0  0  0  0  0  0  0  0  0  0  0  0
    5.6851   47.9742   52.8456 H   0  0  0  0  0  0  0  0  0  0  0  0
    6.0887   47.1564   51.2775 H   0  0  0  0  0  0  0  0  0  0  0  0
    6.0480   45.2827   53.5388 H   0  0  0  0  0  0  0  0  0  0  0  0
    4.4686   46.1381   53.3034 H   0  0  0  0  0  0  0  0  0  0  0  0
    5.4390   43.1370   52.7590 H   0  0  0  0  0  0  0  0  0  0  0  0
    6.8161   42.9888   49.7952 H   0  0  0  0  0  0  0  0  0  0  0  0
    6.4310   41.3748   47.9373 H   0  0  0  0  0  0  0  0  0  0  0  0
    4.8890   39.0260   47.4590 H   0  0  0  0  0  0  0  0  0  0  0  0
    0.4591   38.3864   45.4546 H   0  0  0  0  0  0  0  0  0  0  0  0
    0.3154   40.4895   44.0938 H   0  0  0  0  0  0  0  0  0  0  0  0
    2.0591   42.2597   44.4244 H   0  0  0  0  0  0  0  0  0  0  0  0
    2.5568   40.3863   49.5996 H   0  0  0  0  0  0  0  0  0  0  0  0
    2.9420   41.9995   51.4564 H   0  0  0  0  0  0  0  0  0  0  0  0
    7.2932   47.9725   54.7004 H   0  0  0  0  0  0  0  0  0  0  0  0
  1  2  1  0
  2  3  1  0
  3  4  2  0
  4  5  1  0
  5  6  2  0
  6  7  1  0
  7  8  1  0
  8  9  1  0
  9 10  1  0
 10 11  2  0
 10 12  1  0
 12 13  1  0
 13 14  2  0
 14 15  1  0
 15 16  2  0
 16 17  1  0
 17 18  1  0
 18 19  2  0
 19 20  1  0
 20 21  2  0
 21 22  1  0
 22 23  2  0
 16 24  1  0
 24 25  2  0
  7 26  2  0
 26  3  1  0
 25 13  1  0
 23 18  1  0
  1 27  1  0
  1 28  1  0
  1 29  1  0
  4 30  1  0
  5 31  1  0
  6 32  1  0
  8 33  1  0
  8 34  1  0
  9 35  1  0
  9 36  1  0
 12 37  1  0
 14 38  1  0
 15 39  1  0
 17 40  1  0
 20 41  1  0
 21 42  1  0
 22 43  1  0
 24 44  1  0
 25 45  1  0
 26 46  1  0
M  END
>  <meeko>  (1) 
{"is_sidechain": [false], "free_energy": -8.353, "intermolecular_energy": -11.771, "internal_energy": -0.679}

$$$$
ligand_15_conformer_1_docked
     RDKit          3D

 46 48  0  0  0  0  0  0  0  0999 V2000
    9.1480   44.2890   49.6540 C   0  0  0  0  0  0  0  0  0  0  0  0
    9.9420   45.1450   50.4700 O   0  0  0  0  0  0  0  0  0  0  0  0
    9.4370   45.9430   51.5060 C   0  0  0  0  0  0  0  0  0  0  0  0
   10.3240   46.3940   52.4910 C   0  0  0  0  0  0  0  0  0  0  0  0
    9.8730   47.1990   53.5380 C   0  0  0  0  0  0  0  0  0  0  0  0
    8.5280   47.5620   53.6130 C   0  0  0  0  0  0  0  0  0  0  0  0
    7.6180   47.1140   52.6410 C   0  0  0  0  0  0  0  0  0  0  0  0
    6.1790   47.5640   52.6800 C   0  0  0  0  0  0  0  0  0  0  0  0
    5.2560   46.4760   53.2420 C   0  0  0  0  0  0  0  0  0  0  0  0
    4.8450   45.4980   52.1790 C   0  0  0  0  0  0  0  0  0  0  0  0
    4.2950   45.9260   51.1290 O   0  0  0  0  0  0  0  0  0  0  0  0
    5.1730   44.1070   52.3220 N   0  0  0  0  0  0  0  0  0  0  0  0
    4.9210   43.1160   51.3140 C   0  0  0  0  0  0  0  0  0  0  0  0
    3.7280   42.3730   51.3000 C   0  0  0  0  0  0  0  0  0  0  0  0
    3.5140   41.3990   50.3200 C   0  0  0  0  0  0  0  0  0  0  0  0
    4.4880   41.1530   49.3370 C   0  0  0  0  0  0  0  0  0  0  0  0
    4.3030   40.1410   48.3330 N   0  0  0  0  0  0  0  0  0  0  0  0
    3.7660   40.3900   47.0250 C   0  0  0  0  0  0  0  0  0  0  0  0
    4.4880   41.0700   46.0930 N   0  0  0  0  0  0  0  0  0  0  0  0
    3.9980   41.2820   44.8430 C   0  0  0  0  0  0  0  0  0  0  0  0
    2.7410   40.7900   44.4980 C   0  0  0  0  0  0  0  0  0  0  0  0
    2.0190   40.0840   45.4580 C   0  0  0  0  0  0  0  0  0  0  0  0
    2.5430   39.8940   46.6970 N   0  0  0  0  0  0  0  0  0  0  0  0
    5.6960   41.8650   49.3800 C   0  0  0  0  0  0  0  0  0  0  0  0
    5.9100   42.8390   50.3600 C   0  0  0  0  0  0  0  0  0  0  0  0
    8.0780   46.3080   51.5860 C   0  0  0  0  0  0  0  0  0  0  0  0
    8.5396   43.6331   50.2940 H   0  0  0  0  0  0  0  0  0  0  0  0
    8.4871   44.8972   49.0189 H   0  0  0  0  0  0  0  0  0  0  0  0
    9.8041   43.6757   49.0189 H   0  0  0  0  0  0  0  0  0  0  0  0
   11.3858   46.1113   52.4391 H   0  0  0  0  0  0  0  0  0  0  0  0
   10.5794   47.5480   54.3056 H   0  0  0  0  0  0  0  0  0  0  0  0
    8.1786   48.2018   54.4368 H   0  0  0  0  0  0  0  0  0  0  0  0
    6.1030   48.4585   53.3157 H   0  0  0  0  0  0  0  0  0  0  0  0
    5.8615   47.7824   51.6497 H   0  0  0  0  0  0  0  0  0  0  0  0
    5.7861   45.9348   54.0396 H   0  0  0  0  0  0  0  0  0  0  0  0
    4.3495   46.9613   53.6328 H   0  0  0  0  0  0  0  0  0  0  0  0
    5.7760   43.8310   53.1320 H   0  0  0  0  0  0  0  0  0  0  0  0
    2.9587   42.5588   52.0640 H   0  0  0  0  0  0  0  0  0  0  0  0
    2.5777   40.8217   50.3183 H   0  0  0  0  0  0  0  0  0  0  0  0
    4.6460   39.1760   48.5380 H   0  0  0  0  0  0  0  0  0  0  0  0
    4.5926   41.8408   44.1054 H   0  0  0  0  0  0  0  0  0  0  0  0
    2.3284   40.9550   43.4917 H   0  0  0  0  0  0  0  0  0  0  0  0
    1.0254   39.6807   45.2129 H   0  0  0  0  0  0  0  0  0  0  0  0
    6.4802   41.6556   48.6376 H   0  0  0  0  0  0  0  0  0  0  0  0
    6.8608   43.3916   50.3825 H   0  0  0  0  0  0  0  0  0  0  0  0
    7.3726   45.9595   50.8172 H   0  0  0  0  0  0  0  0  0  0  0  0
  1  2  1  0
  2  3  1  0
  3  4  2  0
  4  5  1  0
  5  6  2  0
  6  7  1  0
  7  8  1  0
  8  9  1  0
  9 10  1  0
 10 11  2  0
 10 12  1  0
 12 13  1  0
 13 14  2  0
 14 15  1  0
 15 16  2  0
 16 17  1  0
 17 18  1  0
 18 19  2  0
 19 20  1  0
 20 21  2  0
 21 22  1  0
 22 23  2  0
 16 24  1  0
 24 25  2  0
  7 26  2  0
 26  3  1  0
 25 13  1  0
 23 18  1  0
  1 27  1  0
  1 28  1  0
  1 29  1  0
  4 30  1  0
  5 31  1  0
  6 32  1  0
  8 33  1  0
  8 34  1  0
  9 35  1  0
  9 36  1  0
 12 37  1  0
 14 38  1  0
 15 39  1  0
 17 40  1  0
 20 41  1  0
 21 42  1  0
 22 43  1  0
 24 44  1  0
 25 45  1  0
 26 46  1  0
M  END
>  <meeko>  (2) 
{"is_sidechain": [false], "free_energy": -8.146, "intermolecular_energy": -11.369, "internal_energy": -0.79}

$$$$
ligand_15_conformer_1_docked
     RDKit          3D

 46 48  0  0  0  0  0  0  0  0999 V2000
    5.8090   47.0100   54.8520 C   0  0  0  0  0  0  0  0  0  0  0  0
    7.2260   47.1490   54.7860 O   0  0  0  0  0  0  0  0  0  0  0  0
    8.0020   46.8160   53.6670 C   0  0  0  0  0  0  0  0  0  0  0  0
    9.3960   46.8720   53.7860 C   0  0  0  0  0  0  0  0  0  0  0  0
   10.2140   46.5410   52.7050 C   0  0  0  0  0  0  0  0  0  0  0  0
    9.6470   46.1510   51.4910 C   0  0  0  0  0  0  0  0  0  0  0  0
    8.2510   46.0960   51.3470 C   0  0  0  0  0  0  0  0  0  0  0  0
    7.6370   45.6050   50.0600 C   0  0  0  0  0  0  0  0  0  0  0  0
    7.3860   44.0920   50.0870 C   0  0  0  0  0  0  0  0  0  0  0  0
    5.9480   43.7770   50.3870 C   0  0  0  0  0  0  0  0  0  0  0  0
    5.4730   42.6660   50.0260 O   0  0  0  0  0  0  0  0  0  0  0  0
    5.1640   44.6940   51.1670 N   0  0  0  0  0  0  0  0  0  0  0  0
    3.8180   44.4330   51.5960 C   0  0  0  0  0  0  0  0  0  0  0  0
    2.7380   45.1980   51.1250 C   0  0  0  0  0  0  0  0  0  0  0  0
    1.4400   44.9370   51.5740 C   0  0  0  0  0  0  0  0  0  0  0  0
    1.2000   43.9070   52.4990 C   0  0  0  0  0  0  0  0  0  0  0  0
   -0.1220   43.6360   52.9950 N   0  0  0  0  0  0  0  0  0  0  0  0
   -0.5740   43.9730   54.3150 C   0  0  0  0  0  0  0  0  0  0  0  0
    0.0900   44.8930   55.0660 N   0  0  0  0  0  0  0  0  0  0  0  0
   -0.3500   45.2390   56.3040 C   0  0  0  0  0  0  0  0  0  0  0  0
   -1.5070   44.6550   56.8170 C   0  0  0  0  0  0  0  0  0  0  0  0
   -2.1840   43.7240   56.0320 C   0  0  0  0  0  0  0  0  0  0  0  0
   -1.7110   43.4040   54.8000 N   0  0  0  0  0  0  0  0  0  0  0  0
    2.2860   43.1750   53.0010 C   0  0  0  0  0  0  0  0  0  0  0  0
    3.5840   43.4350   52.5530 C   0  0  0  0  0  0  0  0  0  0  0  0
    7.4320   46.4250   52.4400 C   0  0  0  0  0  0  0  0  0  0  0  0
    5.4923   46.9789   55.9050 H   0  0  0  0  0  0  0  0  0  0  0  0
    5.3329   47.8658   54.3510 H   0  0  0  0  0  0  0  0  0  0  0  0
    5.5083   46.0780   54.3510 H   0  0  0  0  0  0  0  0  0  0  0  0
    9.8501   47.1795   54.7395 H   0  0  0  0  0  0  0  0  0  0  0  0
   11.3080   46.5876   52.8100 H   0  0  0  0  0  0  0  0  0  0  0  0
   10.2960   45.8856   50.6434 H   0  0  0  0  0  0  0  0  0  0  0  0
    6.6787   46.1218   49.9033 H   0  0  0  0  0  0  0  0  0  0  0  0
    8.3413   45.8193   49.2426 H   0  0  0  0  0  0  0  0  0  0  0  0
    7.6473   43.6689   49.1058 H   0  0  0  0  0  0  0  0  0  0  0  0
    8.0080   43.6534   50.8812 H   0  0  0  0  0  0  0  0  0  0  0  0
    5.6530   45.5200   51.5820 H   0  0  0  0  0  0  0  0  0  0  0  0
    2.9144   46.0060   50.3997 H   0  0  0  0  0  0  0  0  0  0  0  0
    0.6008   45.5422   51.2005 H   0  0  0  0  0  0  0  0  0  0  0  0
   -0.8240   43.2340   52.3330 H   0  0  0  0  0  0  0  0  0  0  0  0
    0.2054   45.9781   56.9000 H   0  0  0  0  0  0  0  0  0  0  0  0
   -1.8768   44.9228   57.8178 H   0  0  0  0  0  0  0  0  0  0  0  0
   -3.1011   43.2485   56.4100 H   0  0  0  0  0  0  0  0  0  0  0  0
    2.1148   42.3905   53.7528 H   0  0  0  0  0  0  0  0  0  0  0  0
    4.4273   42.8532   52.9535 H   0  0  0  0  0  0  0  0  0  0  0  0
    6.3379   46.3769   52.3367 H   0  0  0  0  0  0  0  0  0  0  0  0
  1  2  1  0
  2  3  1  0
  3  4  2  0
  4  5  1  0
  5  6  2  0
  6  7  1  0
  7  8  1  0
  8  9  1  0
  9 10  1  0
 10 11  2  0
 10 12  1  0
 12 13  1  0
 13 14  2  0
 14 15  1  0
 15 16  2  0
 16 17  1  0
 17 18  1  0
 18 19  2  0
 19 20  1  0
 20 21  2  0
 21 22  1  0
 22 23  2  0
 16 24  1  0
 24 25  2  0
  7 26  2  0
 26  3  1  0
 25 13  1  0
 23 18  1  0
  1 27  1  0
  1 28  1  0
  1 29  1  0
  4 30  1  0
  5 31  1  0
  6 32  1  0
  8 33  1  0
  8 34  1  0
  9 35  1  0
  9 36  1  0
 12 37  1  0
 14 38  1  0
 15 39  1  0
 17 40  1  0
 20 41  1  0
 21 42  1  0
 22 43  1  0
 24 44  1  0
 25 45  1  0
 26 46  1  0
M  END
>  <meeko>  (3) 
{"is_sidechain": [false], "free_energy": -8.086, "intermolecular_energy": -11.717, "internal_energy": -0.358}

$$$$
ligand_15_conformer_1_docked
     RDKit          3D

 46 48  0  0  0  0  0  0  0  0999 V2000
   10.7080   47.5900   56.0320 C   0  0  0  0  0  0  0  0  0  0  0  0
    9.5110   47.8990   55.3240 O   0  0  0  0  0  0  0  0  0  0  0  0
    9.1630   47.3530   54.0800 C   0  0  0  0  0  0  0  0  0  0  0  0
   10.1920   47.0010   53.1990 C   0  0  0  0  0  0  0  0  0  0  0  0
    9.9000   46.4450   51.9530 C   0  0  0  0  0  0  0  0  0  0  0  0
    8.5730   46.2340   51.5740 C   0  0  0  0  0  0  0  0  0  0  0  0
    7.5250   46.5880   52.4390 C   0  0  0  0  0  0  0  0  0  0  0  0
    6.0940   46.2940   52.0610 C   0  0  0  0  0  0  0  0  0  0  0  0
    5.5570   45.0500   52.7800 C   0  0  0  0  0  0  0  0  0  0  0  0
    4.0900   45.1730   53.0750 C   0  0  0  0  0  0  0  0  0  0  0  0
    3.4310   46.1040   52.5380 O   0  0  0  0  0  0  0  0  0  0  0  0
    3.4360   44.1770   53.8770 N   0  0  0  0  0  0  0  0  0  0  0  0
    2.0220   44.1480   54.1240 C   0  0  0  0  0  0  0  0  0  0  0  0
    1.1590   43.3480   53.3550 C   0  0  0  0  0  0  0  0  0  0  0  0
   -0.2160   43.3530   53.6020 C   0  0  0  0  0  0  0  0  0  0  0  0
   -0.7530   44.1560   54.6240 C   0  0  0  0  0  0  0  0  0  0  0  0
   -2.1660   44.1970   54.8810 N   0  0  0  0  0  0  0  0  0  0  0  0
   -2.7570   44.0060   56.1750 C   0  0  0  0  0  0  0  0  0  0  0  0
   -2.8850   42.7600   56.7080 N   0  0  0  0  0  0  0  0  0  0  0  0
   -3.4140   42.5750   57.9450 C   0  0  0  0  0  0  0  0  0  0  0  0
   -3.8280   43.6760   58.6940 C   0  0  0  0  0  0  0  0  0  0  0  0
   -3.6800   44.9470   58.1420 C   0  0  0  0  0  0  0  0  0  0  0  0
   -3.1460   45.0890   56.9010 N   0  0  0  0  0  0  0  0  0  0  0  0
    0.1040   44.9860   55.3600 C   0  0  0  0  0  0  0  0  0  0  0  0
    1.4800   44.9820   55.1120 C   0  0  0  0  0  0  0  0  0  0  0  0
    7.8240   47.1420   53.6950 C   0  0  0  0  0  0  0  0  0  0  0  0
   10.5170   47.6393   57.1142 H   0  0  0  0  0  0  0  0  0  0  0  0
   11.0411   46.5764   55.7642 H   0  0  0  0  0  0  0  0  0  0  0  0
   11.4901   48.3157   55.7642 H   0  0  0  0  0  0  0  0  0  0  0  0
   11.2398   47.1641   53.4914 H   0  0  0  0  0  0  0  0  0  0  0  0
   10.7166   46.1725   51.2683 H   0  0  0  0  0  0  0  0  0  0  0  0
    8.3475   45.7886   50.5938 H   0  0  0  0  0  0  0  0  0  0  0  0
    5.4698   47.1584   52.3316 H   0  0  0  0  0  0  0  0  0  0  0  0
    6.0594   46.1037   50.9781 H   0  0  0  0  0  0  0  0  0  0  0  0
    5.7201   44.1698   52.1407 H   0  0  0  0  0  0  0  0  0  0  0  0
    6.0927   44.9462   53.7351 H   0  0  0  0  0  0  0  0  0  0  0  0
    3.9930   43.3380   54.1580 H   0  0  0  0  0  0  0  0  0  0  0  0
    1.5686   42.7146   52.5544 H   0  0  0  0  0  0  0  0  0  0  0  0
   -0.8829   42.7248   52.9932 H   0  0  0  0  0  0  0  0  0  0  0  0
   -2.8040   44.4530   54.0940 H   0  0  0  0  0  0  0  0  0  0  0  0
   -3.5156   41.5594   58.3551 H   0  0  0  0  0  0  0  0  0  0  0  0
   -4.2610   43.5444   59.6966 H   0  0  0  0  0  0  0  0  0  0  0  0
   -3.9952   45.8343   58.7106 H   0  0  0  0  0  0  0  0  0  0  0  0
   -0.3089   45.6450   56.1380 H   0  0  0  0  0  0  0  0  0  0  0  0
    2.1421   45.6379   55.6963 H   0  0  0  0  0  0  0  0  0  0  0  0
    7.0083   47.4125   54.3817 H   0  0  0  0  0  0  0  0  0  0  0  0
  1  2  1  0
  2  3  1  0
  3  4  2  0
  4  5  1  0
  5  6  2  0
  6  7  1  0
  7  8  1  0
  8  9  1  0
  9 10  1  0
 10 11  2  0
 10 12  1  0
 12 13  1  0
 13 14  2  0
 14 15  1  0
 15 16  2  0
 16 17  1  0
 17 18  1  0
 18 19  2  0
 19 20  1  0
 20 21  2  0
 21 22  1  0
 22 23  2  0
 16 24  1  0
 24 25  2  0
  7 26  2  0
 26  3  1  0
 25 13  1  0
 23 18  1  0
  1 27  1  0
  1 28  1  0
  1 29  1  0
  4 30  1  0
  5 31  1  0
  6 32  1  0
  8 33  1  0
  8 34  1  0
  9 35  1  0
  9 36  1  0
 12 37  1  0
 14 38  1  0
 15 39  1  0
 17 40  1  0
 20 41  1  0
 21 42  1  0
 22 43  1  0
 24 44  1  0
 25 45  1  0
 26 46  1  0
M  END
>  <meeko>  (4) 
{"is_sidechain": [false], "free_energy": -7.915, "intermolecular_energy": -11.245, "internal_energy": -0.589}

$$$$
ligand_15_conformer_1_docked
     RDKit          3D

 46 48  0  0  0  0  0  0  0  0999 V2000
    5.7680   46.9100   54.9580 C   0  0  0  0  0  0  0  0  0  0  0  0
    7.1610   47.1900   54.8590 O   0  0  0  0  0  0  0  0  0  0  0  0
    7.9490   46.9010   53.7360 C   0  0  0  0  0  0  0  0  0  0  0  0
    9.3370   47.0460   53.8440 C   0  0  0  0  0  0  0  0  0  0  0  0
   10.1670   46.7620   52.7580 C   0  0  0  0  0  0  0  0  0  0  0  0
    9.6170   46.3290   51.5500 C   0  0  0  0  0  0  0  0  0  0  0  0
    8.2260   46.1840   51.4180 C   0  0  0  0  0  0  0  0  0  0  0  0
    7.6350   45.6470   50.1380 C   0  0  0  0  0  0  0  0  0  0  0  0
    6.9130   44.3120   50.3580 C   0  0  0  0  0  0  0  0  0  0  0  0
    5.5280   44.5180   50.9030 C   0  0  0  0  0  0  0  0  0  0  0  0
    4.8160   45.4500   50.4390 O   0  0  0  0  0  0  0  0  0  0  0  0
    4.9940   43.5940   51.8650 N   0  0  0  0  0  0  0  0  0  0  0  0
    3.6470   43.6430   52.3620 C   0  0  0  0  0  0  0  0  0  0  0  0
    3.3020   44.4430   53.4640 C   0  0  0  0  0  0  0  0  0  0  0  0
    1.9880   44.4590   53.9410 C   0  0  0  0  0  0  0  0  0  0  0  0
    0.9970   43.6760   53.3230 C   0  0  0  0  0  0  0  0  0  0  0  0
   -0.3550   43.6550   53.8100 N   0  0  0  0  0  0  0  0  0  0  0  0
   -1.5090   43.9240   52.9990 C   0  0  0  0  0  0  0  0  0  0  0  0
   -1.7090   45.1570   52.4570 N   0  0  0  0  0  0  0  0  0  0  0  0
   -2.7830   45.4100   51.6650 C   0  0  0  0  0  0  0  0  0  0  0  0
   -3.6950   44.3930   51.3870 C   0  0  0  0  0  0  0  0  0  0  0  0
   -3.4710   43.1330   51.9380 C   0  0  0  0  0  0  0  0  0  0  0  0
   -2.3860   42.9200   52.7270 N   0  0  0  0  0  0  0  0  0  0  0  0
    1.3550   42.8450   52.2510 C   0  0  0  0  0  0  0  0  0  0  0  0
    2.6680   42.8300   51.7740 C   0  0  0  0  0  0  0  0  0  0  0  0
    7.3950   46.4670   52.5150 C   0  0  0  0  0  0  0  0  0  0  0  0
    5.4801   46.8521   56.0181 H   0  0  0  0  0  0  0  0  0  0  0  0
    5.1971   47.7113   54.4662 H   0  0  0  0  0  0  0  0  0  0  0  0
    5.5510   45.9503   54.4662 H   0  0  0  0  0  0  0  0  0  0  0  0
    9.7775   47.3866   54.7926 H   0  0  0  0  0  0  0  0  0  0  0  0
   11.2565   46.8796   52.8542 H   0  0  0  0  0  0  0  0  0  0  0  0
   10.2751   46.1006   50.6987 H   0  0  0  0  0  0  0  0  0  0  0  0
    6.9156   46.3797   49.7435 H   0  0  0  0  0  0  0  0  0  0  0  0
    8.4574   45.4770   49.4275 H   0  0  0  0  0  0  0  0  0  0  0  0
    6.8437   43.7806   49.3974 H   0  0  0  0  0  0  0  0  0  0  0  0
    7.4879   43.7253   51.0896 H   0  0  0  0  0  0  0  0  0  0  0  0
    5.5620   42.7460   52.0900 H   0  0  0  0  0  0  0  0  0  0  0  0
    4.0696   45.0599   53.9540 H   0  0  0  0  0  0  0  0  0  0  0  0
    1.7278   45.0880   54.8051 H   0  0  0  0  0  0  0  0  0  0  0  0
   -0.5190   43.3550   54.7970 H   0  0  0  0  0  0  0  0  0  0  0  0
   -2.9328   46.4151   51.2439 H   0  0  0  0  0  0  0  0  0  0  0  0
   -4.5705   44.5807   50.7480 H   0  0  0  0  0  0  0  0  0  0  0  0
   -4.1727   42.3108   51.7341 H   0  0  0  0  0  0  0  0  0  0  0  0
    0.5965   42.2006   51.7826 H   0  0  0  0  0  0  0  0  0  0  0  0
    2.9355   42.1757   50.9312 H   0  0  0  0  0  0  0  0  0  0  0  0
    6.3054   46.3491   52.4203 H   0  0  0  0  0  0  0  0  0  0  0  0
  1  2  1  0
  2  3  1  0
  3  4  2  0
  4  5  1  0
  5  6  2  0
  6  7  1  0
  7  8  1  0
  8  9  1  0
  9 10  1  0
 10 11  2  0
 10 12  1  0
 12 13  1  0
 13 14  2  0
 14 15  1  0
 15 16  2  0
 16 17  1  0
 17 18  1  0
 18 19  2  0
 19 20  1  0
 20 21  2  0
 21 22  1  0
 22 23  2  0
 16 24  1  0
 24 25  2  0
  7 26  2  0
 26  3  1  0
 25 13  1  0
 23 18  1  0
  1 27  1  0
  1 28  1  0
  1 29  1  0
  4 30  1  0
  5 31  1  0
  6 32  1  0
  8 33  1  0
  8 34  1  0
  9 35  1  0
  9 36  1  0
 12 37  1  0
 14 38  1  0
 15 39  1  0
 17 40  1  0
 20 41  1  0
 21 42  1  0
 22 43  1  0
 24 44  1  0
 25 45  1  0
 26 46  1  0
M  END
>  <meeko>  (5) 
{"is_sidechain": [false], "free_energy": -7.901, "intermolecular_energy": -11.276, "internal_energy": -0.538}

$$$$
