ligand_14_conformer_4_docked
     RDKit          3D

 47 50  0  0  0  0  0  0  0  0999 V2000
    8.7320   48.2960   54.6590 C   0  0  0  0  0  0  0  0  0  0  0  0
    8.8270   47.3920   53.4660 C   0  0  0  0  0  0  0  0  0  0  0  0
   10.0780   46.9480   53.0170 C   0  0  0  0  0  0  0  0  0  0  0  0
   10.1700   46.0700   51.9360 C   0  0  0  0  0  0  0  0  0  0  0  0
   11.3910   45.6500   51.5160 F   0  0  0  0  0  0  0  0  0  0  0  0
    9.0110   45.6170   51.2960 C   0  0  0  0  0  0  0  0  0  0  0  0
    9.1120   44.7490   50.2540 N   0  0  0  0  0  0  0  0  0  0  0  0
    8.0210   44.2700   49.6050 C   0  0  0  0  0  0  0  0  0  0  0  0
    8.1880   43.3830   48.5460 O   0  0  0  0  0  0  0  0  0  0  0  0
    6.7420   44.6730   50.0010 C   0  0  0  0  0  0  0  0  0  0  0  0
    6.5880   45.5660   51.0700 C   0  0  0  0  0  0  0  0  0  0  0  0
    5.2200   45.9930   51.4360 C   0  0  0  0  0  0  0  0  0  0  0  0
    4.4010   46.2770   50.5210 O   0  0  0  0  0  0  0  0  0  0  0  0
    4.8060   46.0560   52.8100 N   0  0  0  0  0  0  0  0  0  0  0  0
    4.3980   47.2950   53.4500 C   0  0  0  0  0  0  0  0  0  0  0  0
    3.9910   46.9290   54.8750 C   0  0  0  0  0  0  0  0  0  0  0  0
    4.4140   45.4670   55.0800 C   0  0  1  0  0  0  0  0  0  0  0  0
    3.3610   44.6550   55.7130 N   0  0  0  0  0  0  0  0  0  0  0  0
    1.9370   44.7160   55.4650 C   0  0  0  0  0  0  0  0  0  0  0  0
    1.1100   45.3250   56.4250 C   0  0  0  0  0  0  0  0  0  0  0  0
   -0.2730   45.4000   56.2340 C   0  0  0  0  0  0  0  0  0  0  0  0
   -0.8490   44.8670   55.0800 C   0  0  0  0  0  0  0  0  0  0  0  0
   -0.0430   44.2610   54.1150 C   0  0  0  0  0  0  0  0  0  0  0  0
    1.3400   44.1860   54.3000 C   0  0  0  0  0  0  0  0  0  0  0  0
    4.8460   44.9200   53.7170 C   0  0  0  0  0  0  0  0  0  0  0  0
    7.7370   46.0520   51.7380 C   0  0  0  0  0  0  0  0  0  0  0  0
    7.6600   46.9290   52.8390 C   0  0  0  0  0  0  0  0  0  0  0  0
    8.7950   47.6966   55.5792 H   0  0  0  0  0  0  0  0  0  0  0  0
    9.5589   49.0211   54.6364 H   0  0  0  0  0  0  0  0  0  0  0  0
    7.7724   48.8333   54.6364 H   0  0  0  0  0  0  0  0  0  0  0  0
   10.9933   47.2937   53.5197 H   0  0  0  0  0  0  0  0  0  0  0  0
    8.9530   42.7180   48.5270 H   0  0  0  0  0  0  0  0  0  0  0  0
    5.8565   44.2890   49.4733 H   0  0  0  0  0  0  0  0  0  0  0  0
    5.2344   48.0093   53.4646 H   0  0  0  0  0  0  0  0  0  0  0  0
    3.5676   47.7701   52.9072 H   0  0  0  0  0  0  0  0  0  0  0  0
    4.5056   47.5796   55.5974 H   0  0  0  0  0  0  0  0  0  0  0  0
    2.9095   47.0584   55.0284 H   0  0  0  0  0  0  0  0  0  0  0  0
    5.2559   45.4155   55.7861 H   0  0  0  0  0  0  0  0  0  0  0  0
    3.6960   43.9450   56.4030 H   0  0  0  0  0  0  0  0  0  0  0  0
    1.5563   45.7475   57.3373 H   0  0  0  0  0  0  0  0  0  0  0  0
   -0.9075   45.8795   56.9939 H   0  0  0  0  0  0  0  0  0  0  0  0
   -1.9374   44.9244   54.9310 H   0  0  0  0  0  0  0  0  0  0  0  0
   -0.4980   43.8411   53.2058 H   0  0  0  0  0  0  0  0  0  0  0  0
    1.9684   43.7106   53.5325 H   0  0  0  0  0  0  0  0  0  0  0  0
    5.8648   44.5092   53.7734 H   0  0  0  0  0  0  0  0  0  0  0  0
    4.1893   44.1051   53.3784 H   0  0  0  0  0  0  0  0  0  0  0  0
    6.6765   47.2533   53.2099 H   0  0  0  0  0  0  0  0  0  0  0  0
  1  2  1  0
  2  3  2  0
  3  4  1  0
  4  5  1  0
  4  6  2  0
  6  7  1  0
  7  8  2  0
  8  9  1  0
  8 10  1  0
 10 11  2  0
 11 12  1  0
 12 13  2  0
 12 14  1  0
 14 15  1  0
 15 16  1  0
 16 17  1  0
 17 18  1  0
 18 19  1  0
 19 20  2  0
 20 21  1  0
 21 22  2  0
 22 23  1  0
 23 24  2  0
 17 25  1  0
 11 26  1  0
 26 27  2  0
 27  2  1  0
 26  6  1  0
 25 14  1  0
 24 19  1  0
  1 28  1  0
  1 29  1  0
  1 30  1  0
  3 31  1  0
  9 32  1  0
 10 33  1  0
 15 34  1  0
 15 35  1  0
 16 36  1  0
 16 37  1  0
 17 38  1  1
 18 39  1  0
 20 40  1  0
 21 41  1  0
 22 42  1  0
 23 43  1  0
 24 44  1  0
 25 45  1  0
 25 46  1  0
 27 47  1  0
M  END
>  <meeko>  (1) 
{"is_sidechain": [false], "free_energy": -10.139, "intermolecular_energy": -12.806, "internal_energy": -0.319}

$$$$
ligand_14_conformer_4_docked
     RDKit          3D

 47 50  0  0  0  0  0  0  0  0999 V2000
    7.2860   43.0270   49.6900 C   0  0  0  0  0  0  0  0  0  0  0  0
    5.8490   42.7710   50.0350 C   0  0  0  0  0  0  0  0  0  0  0  0
    5.2540   41.5450   49.7080 C   0  0  0  0  0  0  0  0  0  0  0  0
    3.9310   41.2830   50.0680 C   0  0  0  0  0  0  0  0  0  0  0  0
    3.3730   40.0890   49.7420 F   0  0  0  0  0  0  0  0  0  0  0  0
    3.1890   42.2400   50.7690 C   0  0  0  0  0  0  0  0  0  0  0  0
    1.9060   41.9680   51.1280 N   0  0  0  0  0  0  0  0  0  0  0  0
    1.1460   42.8550   51.8170 C   0  0  0  0  0  0  0  0  0  0  0  0
   -0.1610   42.5180   52.1580 O   0  0  0  0  0  0  0  0  0  0  0  0
    1.6770   44.0980   52.1750 C   0  0  0  0  0  0  0  0  0  0  0  0
    2.9950   44.4240   51.8280 C   0  0  0  0  0  0  0  0  0  0  0  0
    3.5070   45.7600   52.1960 C   0  0  0  0  0  0  0  0  0  0  0  0
    3.0620   46.7760   51.5950 O   0  0  0  0  0  0  0  0  0  0  0  0
    4.4750   45.9200   53.2450 N   0  0  0  0  0  0  0  0  0  0  0  0
    4.6920   44.9150   54.2720 C   0  0  0  0  0  0  0  0  0  0  0  0
    5.8230   45.4390   55.1530 C   0  0  0  0  0  0  0  0  0  0  0  0
    6.0700   46.8900   54.7170 C   0  0  1  0  0  0  0  0  0  0  0  0
    7.5000   47.1960   54.5480 N   0  0  0  0  0  0  0  0  0  0  0  0
    8.3640   46.7830   53.4640 C   0  0  0  0  0  0  0  0  0  0  0  0
    9.7550   46.7990   53.6660 C   0  0  0  0  0  0  0  0  0  0  0  0
   10.6310   46.4160   52.6460 C   0  0  0  0  0  0  0  0  0  0  0  0
   10.1280   46.0120   51.4080 C   0  0  0  0  0  0  0  0  0  0  0  0
    8.7500   45.9890   51.1900 C   0  0  0  0  0  0  0  0  0  0  0  0
    7.8700   46.3680   52.2080 C   0  0  0  0  0  0  0  0  0  0  0  0
    5.2560   47.1310   53.4440 C   0  0  0  0  0  0  0  0  0  0  0  0
    3.7740   43.4840   51.1120 C   0  0  0  0  0  0  0  0  0  0  0  0
    5.1150   43.7290   50.7530 C   0  0  0  0  0  0  0  0  0  0  0  0
    7.8722   43.1314   50.6149 H   0  0  0  0  0  0  0  0  0  0  0  0
    7.6774   42.1844   49.1010 H   0  0  0  0  0  0  0  0  0  0  0  0
    7.3624   43.9529   49.1010 H   0  0  0  0  0  0  0  0  0  0  0  0
    5.8332   40.7843   49.1642 H   0  0  0  0  0  0  0  0  0  0  0  0
   -0.9300   43.1630   52.0110 H   0  0  0  0  0  0  0  0  0  0  0  0
    1.0598   44.8204   52.7293 H   0  0  0  0  0  0  0  0  0  0  0  0
    3.7780   44.7763   54.8682 H   0  0  0  0  0  0  0  0  0  0  0  0
    4.9485   43.9409   53.8299 H   0  0  0  0  0  0  0  0  0  0  0  0
    5.5284   45.4042   56.2122 H   0  0  0  0  0  0  0  0  0  0  0  0
    6.7312   44.8281   55.0440 H   0  0  0  0  0  0  0  0  0  0  0  0
    5.7383   47.5806   55.5063 H   0  0  0  0  0  0  0  0  0  0  0  0
    7.9220   47.7980   55.2910 H   0  0  0  0  0  0  0  0  0  0  0  0
   10.1592   47.1167   54.6385 H   0  0  0  0  0  0  0  0  0  0  0  0
   11.7172   46.4330   52.8190 H   0  0  0  0  0  0  0  0  0  0  0  0
   10.8174   45.7121   50.6050 H   0  0  0  0  0  0  0  0  0  0  0  0
    8.3547   45.6716   50.2138 H   0  0  0  0  0  0  0  0  0  0  0  0
    6.7849   46.3427   52.0293 H   0  0  0  0  0  0  0  0  0  0  0  0
    4.5927   47.9993   53.5708 H   0  0  0  0  0  0  0  0  0  0  0  0
    5.9035   47.3447   52.5808 H   0  0  0  0  0  0  0  0  0  0  0  0
    5.5907   44.6790   51.0378 H   0  0  0  0  0  0  0  0  0  0  0  0
  1  2  1  0
  2  3  2  0
  3  4  1  0
  4  5  1  0
  4  6  2  0
  6  7  1  0
  7  8  2  0
  8  9  1  0
  8 10  1  0
 10 11  2  0
 11 12  1  0
 12 13  2  0
 12 14  1  0
 14 15  1  0
 15 16  1  0
 16 17  1  0
 17 18  1  0
 18 19  1  0
 19 20  2  0
 20 21  1  0
 21 22  2  0
 22 23  1  0
 23 24  2  0
 17 25  1  0
 11 26  1  0
 26 27  2  0
 27  2  1  0
 26  6  1  0
 25 14  1  0
 24 19  1  0
  1 28  1  0
  1 29  1  0
  1 30  1  0
  3 31  1  0
  9 32  1  0
 10 33  1  0
 15 34  1  0
 15 35  1  0
 16 36  1  0
 16 37  1  0
 17 38  1  1
 18 39  1  0
 20 40  1  0
 21 41  1  0
 22 42  1  0
 23 43  1  0
 24 44  1  0
 25 45  1  0
 25 46  1  0
 27 47  1  0
M  END
>  <meeko>  (2) 
{"is_sidechain": [false], "free_energy": -9.852, "intermolecular_energy": -12.072, "internal_energy": -0.691}

$$$$
ligand_14_conformer_4_docked
     RDKit          3D

 47 50  0  0  0  0  0  0  0  0999 V2000
   11.0310   46.0350   51.4440 C   0  0  0  0  0  0  0  0  0  0  0  0
    9.8460   46.3790   52.2970 C   0  0  0  0  0  0  0  0  0  0  0  0
   10.0120   47.1530   53.4540 C   0  0  0  0  0  0  0  0  0  0  0  0
    8.9070   47.5150   54.2260 C   0  0  0  0  0  0  0  0  0  0  0  0
    9.0890   48.2670   55.3420 F   0  0  0  0  0  0  0  0  0  0  0  0
    7.6210   47.1160   53.8470 C   0  0  0  0  0  0  0  0  0  0  0  0
    6.5510   47.4880   54.5990 N   0  0  0  0  0  0  0  0  0  0  0  0
    5.2820   47.1370   54.2710 C   0  0  0  0  0  0  0  0  0  0  0  0
    4.2260   47.5500   55.0800 O   0  0  0  0  0  0  0  0  0  0  0  0
    5.0450   46.3640   53.1310 C   0  0  0  0  0  0  0  0  0  0  0  0
    6.1160   45.9570   52.3240 C   0  0  0  0  0  0  0  0  0  0  0  0
    5.8260   45.1140   51.1450 C   0  0  0  0  0  0  0  0  0  0  0  0
    6.4070   45.3640   50.0540 O   0  0  0  0  0  0  0  0  0  0  0  0
    4.9230   44.0000   51.2340 N   0  0  0  0  0  0  0  0  0  0  0  0
    5.2900   42.6580   50.8130 C   0  0  0  0  0  0  0  0  0  0  0  0
    4.0860   41.7700   51.1150 C   0  0  0  0  0  0  0  0  0  0  0  0
    2.9410   42.7160   51.5040 C   0  0  1  0  0  0  0  0  0  0  0  0
    2.2200   42.2700   52.7070 N   0  0  0  0  0  0  0  0  0  0  0  0
    1.2800   43.0310   53.5000 C   0  0  0  0  0  0  0  0  0  0  0  0
   -0.0800   42.6770   53.4600 C   0  0  0  0  0  0  0  0  0  0  0  0
   -1.0270   43.3880   54.2030 C   0  0  0  0  0  0  0  0  0  0  0  0
   -0.6290   44.4640   54.9970 C   0  0  0  0  0  0  0  0  0  0  0  0
    0.7180   44.8290   55.0510 C   0  0  0  0  0  0  0  0  0  0  0  0
    1.6690   44.1190   54.3120 C   0  0  0  0  0  0  0  0  0  0  0  0
    3.5370   44.1180   51.6550 C   0  0  0  0  0  0  0  0  0  0  0  0
    7.4330   46.3360   52.6800 C   0  0  0  0  0  0  0  0  0  0  0  0
    8.5570   45.9880   51.9030 C   0  0  0  0  0  0  0  0  0  0  0  0
   11.8870   45.7865   52.0886 H   0  0  0  0  0  0  0  0  0  0  0  0
   10.7871   45.1706   50.8089 H   0  0  0  0  0  0  0  0  0  0  0  0
   11.2879   46.8957   50.8089 H   0  0  0  0  0  0  0  0  0  0  0  0
   11.0191   47.4770   53.7552 H   0  0  0  0  0  0  0  0  0  0  0  0
    4.2350   48.4510   55.5440 H   0  0  0  0  0  0  0  0  0  0  0  0
    4.0170   46.0748   52.8670 H   0  0  0  0  0  0  0  0  0  0  0  0
    5.5127   42.6443   49.7359 H   0  0  0  0  0  0  0  0  0  0  0  0
    6.1889   42.3055   51.3399 H   0  0  0  0  0  0  0  0  0  0  0  0
    3.8112   41.1849   50.2250 H   0  0  0  0  0  0  0  0  0  0  0  0
    4.3074   41.0564   51.9223 H   0  0  0  0  0  0  0  0  0  0  0  0
    2.1737   42.7200   50.7159 H   0  0  0  0  0  0  0  0  0  0  0  0
    2.4010   41.2820   52.9980 H   0  0  0  0  0  0  0  0  0  0  0  0
   -0.4029   41.8303   52.8365 H   0  0  0  0  0  0  0  0  0  0  0  0
   -2.0875   43.0987   54.1616 H   0  0  0  0  0  0  0  0  0  0  0  0
   -1.3751   45.0241   55.5797 H   0  0  0  0  0  0  0  0  0  0  0  0
    1.0316   45.6776   55.6768 H   0  0  0  0  0  0  0  0  0  0  0  0
    2.7285   44.4101   54.3634 H   0  0  0  0  0  0  0  0  0  0  0  0
    3.0008   44.8343   51.0151 H   0  0  0  0  0  0  0  0  0  0  0  0
    3.4551   44.4864   52.6882 H   0  0  0  0  0  0  0  0  0  0  0  0
    8.4224   45.4050   50.9800 H   0  0  0  0  0  0  0  0  0  0  0  0
  1  2  1  0
  2  3  2  0
  3  4  1  0
  4  5  1  0
  4  6  2  0
  6  7  1  0
  7  8  2  0
  8  9  1  0
  8 10  1  0
 10 11  2  0
 11 12  1  0
 12 13  2  0
 12 14  1  0
 14 15  1  0
 15 16  1  0
 16 17  1  0
 17 18  1  0
 18 19  1  0
 19 20  2  0
 20 21  1  0
 21 22  2  0
 22 23  1  0
 23 24  2  0
 17 25  1  0
 11 26  1  0
 26 27  2  0
 27  2  1  0
 26  6  1  0
 25 14  1  0
 24 19  1  0
  1 28  1  0
  1 29  1  0
  1 30  1  0
  3 31  1  0
  9 32  1  0
 10 33  1  0
 15 34  1  0
 15 35  1  0
 16 36  1  0
 16 37  1  0
 17 38  1  6
 18 39  1  0
 20 40  1  0
 21 41  1  0
 22 42  1  0
 23 43  1  0
 24 44  1  0
 25 45  1  0
 25 46  1  0
 27 47  1  0
M  END
>  <meeko>  (3) 
{"is_sidechain": [false], "free_energy": -9.778, "intermolecular_energy": -12.992, "internal_energy": 0.322}

$$$$
ligand_14_conformer_4_docked
     RDKit          3D

 47 50  0  0  0  0  0  0  0  0999 V2000
    9.0720   48.3030   55.3380 C   0  0  0  0  0  0  0  0  0  0  0  0
    9.0650   47.5480   54.0420 C   0  0  0  0  0  0  0  0  0  0  0  0
   10.2720   47.1710   53.4390 C   0  0  0  0  0  0  0  0  0  0  0  0
   10.2710   46.4280   52.2580 C   0  0  0  0  0  0  0  0  0  0  0  0
   11.4520   46.0720   51.6900 F   0  0  0  0  0  0  0  0  0  0  0  0
    9.0620   46.0440   51.6680 C   0  0  0  0  0  0  0  0  0  0  0  0
    9.0730   45.3060   50.5270 N   0  0  0  0  0  0  0  0  0  0  0  0
    7.9300   44.8980   49.9200 C   0  0  0  0  0  0  0  0  0  0  0  0
    8.0050   44.1440   48.7520 O   0  0  0  0  0  0  0  0  0  0  0  0
    6.6900   45.2400   50.4670 C   0  0  0  0  0  0  0  0  0  0  0  0
    6.6270   45.9980   51.6440 C   0  0  0  0  0  0  0  0  0  0  0  0
    5.2970   46.3670   52.1720 C   0  0  0  0  0  0  0  0  0  0  0  0
    5.1180   47.5290   52.6280 O   0  0  0  0  0  0  0  0  0  0  0  0
    4.2030   45.4360   52.1420 N   0  0  0  0  0  0  0  0  0  0  0  0
    2.8910   45.7840   51.6220 C   0  0  0  0  0  0  0  0  0  0  0  0
    2.0410   44.5200   51.7220 C   0  0  0  0  0  0  0  0  0  0  0  0
    2.8630   43.5140   52.5410 C   0  0  1  0  0  0  0  0  0  0  0  0
    2.8750   42.1700   51.9400 N   0  0  0  0  0  0  0  0  0  0  0  0
    3.6580   41.7200   50.8100 C   0  0  0  0  0  0  0  0  0  0  0  0
    5.0390   41.9880   50.7980 C   0  0  0  0  0  0  0  0  0  0  0  0
    5.8370   41.5810   49.7240 C   0  0  0  0  0  0  0  0  0  0  0  0
    5.2660   40.9010   48.6470 C   0  0  0  0  0  0  0  0  0  0  0  0
    3.8970   40.6260   48.6430 C   0  0  0  0  0  0  0  0  0  0  0  0
    3.0960   41.0290   49.7160 C   0  0  0  0  0  0  0  0  0  0  0  0
    4.2660   44.1000   52.7130 C   0  0  0  0  0  0  0  0  0  0  0  0
    7.8300   46.4120   52.2650 C   0  0  0  0  0  0  0  0  0  0  0  0
    7.8480   47.1520   53.4650 C   0  0  0  0  0  0  0  0  0  0  0  0
    9.0654   47.5915   56.1769 H   0  0  0  0  0  0  0  0  0  0  0  0
    9.9760   48.9273   55.3938 H   0  0  0  0  0  0  0  0  0  0  0  0
    8.1798   48.9439   55.3938 H   0  0  0  0  0  0  0  0  0  0  0  0
   11.2272   47.4628   53.8998 H   0  0  0  0  0  0  0  0  0  0  0  0
    7.8670   44.5630   47.8400 H   0  0  0  0  0  0  0  0  0  0  0  0
    5.7628   44.9139   49.9731 H   0  0  0  0  0  0  0  0  0  0  0  0
    2.4453   46.5911   52.2221 H   0  0  0  0  0  0  0  0  0  0  0  0
    2.9546   46.1417   50.5837 H   0  0  0  0  0  0  0  0  0  0  0  0
    1.0904   44.7391   52.2303 H   0  0  0  0  0  0  0  0  0  0  0  0
    1.7969   44.1215   50.7262 H   0  0  0  0  0  0  0  0  0  0  0  0
    2.3993   43.3651   53.5273 H   0  0  0  0  0  0  0  0  0  0  0  0
    2.2590   41.4650   52.4050 H   0  0  0  0  0  0  0  0  0  0  0  0
    5.4963   42.5237   51.6429 H   0  0  0  0  0  0  0  0  0  0  0  0
    6.9156   41.7970   49.7280 H   0  0  0  0  0  0  0  0  0  0  0  0
    5.8940   40.5820   47.8021 H   0  0  0  0  0  0  0  0  0  0  0  0
    3.4475   40.0909   47.7935 H   0  0  0  0  0  0  0  0  0  0  0  0
    2.0190   40.8054   49.7070 H   0  0  0  0  0  0  0  0  0  0  0  0
    4.5335   44.1499   53.7788 H   0  0  0  0  0  0  0  0  0  0  0  0
    5.0296   43.4812   52.2190 H   0  0  0  0  0  0  0  0  0  0  0  0
    6.9000   47.4215   53.9535 H   0  0  0  0  0  0  0  0  0  0  0  0
  1  2  1  0
  2  3  2  0
  3  4  1  0
  4  5  1  0
  4  6  2  0
  6  7  1  0
  7  8  2  0
  8  9  1  0
  8 10  1  0
 10 11  2  0
 11 12  1  0
 12 13  2  0
 12 14  1  0
 14 15  1  0
 15 16  1  0
 16 17  1  0
 17 18  1  0
 18 19  1  0
 19 20  2  0
 20 21  1  0
 21 22  2  0
 22 23  1  0
 23 24  2  0
 17 25  1  0
 11 26  1  0
 26 27  2  0
 27  2  1  0
 26  6  1  0
 25 14  1  0
 24 19  1  0
  1 28  1  0
  1 29  1  0
  1 30  1  0
  3 31  1  0
  9 32  1  0
 10 33  1  0
 15 34  1  0
 15 35  1  0
 16 36  1  0
 16 37  1  0
 17 38  1  1
 18 39  1  0
 20 40  1  0
 21 41  1  0
 22 42  1  0
 23 43  1  0
 24 44  1  0
 25 45  1  0
 25 46  1  0
 27 47  1  0
M  END
>  <meeko>  (4) 
{"is_sidechain": [false], "free_energy": -9.368, "intermolecular_energy": -12.048, "internal_energy": -0.103}

$$$$
ligand_14_conformer_4_docked
     RDKit          3D

 47 50  0  0  0  0  0  0  0  0999 V2000
    1.0540   45.3550   57.0860 C   0  0  0  0  0  0  0  0  0  0  0  0
    0.5710   44.9290   55.7320 C   0  0  0  0  0  0  0  0  0  0  0  0
   -0.7900   45.0220   55.4090 C   0  0  0  0  0  0  0  0  0  0  0  0
   -1.2390   44.6710   54.1340 C   0  0  0  0  0  0  0  0  0  0  0  0
   -2.5610   44.7680   53.8410 F   0  0  0  0  0  0  0  0  0  0  0  0
   -0.3320   44.2330   53.1630 C   0  0  0  0  0  0  0  0  0  0  0  0
   -0.7790   43.9100   51.9210 N   0  0  0  0  0  0  0  0  0  0  0  0
    0.0590   43.4900   50.9390 C   0  0  0  0  0  0  0  0  0  0  0  0
   -0.4580   43.1740   49.6860 O   0  0  0  0  0  0  0  0  0  0  0  0
    1.4290   43.3740   51.1940 C   0  0  0  0  0  0  0  0  0  0  0  0
    1.9370   43.6970   52.4590 C   0  0  0  0  0  0  0  0  0  0  0  0
    3.3860   43.5300   52.6980 C   0  0  0  0  0  0  0  0  0  0  0  0
    3.9290   42.4250   52.4240 O   0  0  0  0  0  0  0  0  0  0  0  0
    4.1850   44.6120   53.2020 N   0  0  0  0  0  0  0  0  0  0  0  0
    4.9430   44.5180   54.4380 C   0  0  0  0  0  0  0  0  0  0  0  0
    5.6840   45.8430   54.5890 C   0  0  0  0  0  0  0  0  0  0  0  0
    5.1220   46.7750   53.5060 C   0  0  1  0  0  0  0  0  0  0  0  0
    6.1780   47.4960   52.7750 N   0  0  0  0  0  0  0  0  0  0  0  0
    7.5780   47.1460   52.6830 C   0  0  0  0  0  0  0  0  0  0  0  0
    8.0140   46.3990   51.5740 C   0  0  0  0  0  0  0  0  0  0  0  0
    9.3560   46.0290   51.4440 C   0  0  0  0  0  0  0  0  0  0  0  0
   10.2810   46.4000   52.4210 C   0  0  0  0  0  0  0  0  0  0  0  0
    9.8660   47.1430   53.5270 C   0  0  0  0  0  0  0  0  0  0  0  0
    8.5260   47.5170   53.6600 C   0  0  0  0  0  0  0  0  0  0  0  0
    4.2370   45.9290   52.5880 C   0  0  0  0  0  0  0  0  0  0  0  0
    1.0480   44.1370   53.4700 C   0  0  0  0  0  0  0  0  0  0  0  0
    1.4890   44.5060   54.7570 C   0  0  0  0  0  0  0  0  0  0  0  0
    0.4697   44.8397   57.8626 H   0  0  0  0  0  0  0  0  0  0  0  0
    2.1174   45.0953   57.1944 H   0  0  0  0  0  0  0  0  0  0  0  0
    0.9292   46.4425   57.1944 H   0  0  0  0  0  0  0  0  0  0  0  0
   -1.5084   45.3735   56.1642 H   0  0  0  0  0  0  0  0  0  0  0  0
   -1.4570   43.1010   49.5280 H   0  0  0  0  0  0  0  0  0  0  0  0
    2.1084   43.0289   50.4007 H   0  0  0  0  0  0  0  0  0  0  0  0
    4.2646   44.3620   55.2897 H   0  0  0  0  0  0  0  0  0  0  0  0
    5.6427   43.6696   54.4138 H   0  0  0  0  0  0  0  0  0  0  0  0
    5.5054   46.2679   55.5878 H   0  0  0  0  0  0  0  0  0  0  0  0
    6.7702   45.7093   54.4780 H   0  0  0  0  0  0  0  0  0  0  0  0
    4.5223   47.5716   53.9705 H   0  0  0  0  0  0  0  0  0  0  0  0
    5.8620   48.3440   52.2520 H   0  0  0  0  0  0  0  0  0  0  0  0
    7.2908   46.1024   50.8000 H   0  0  0  0  0  0  0  0  0  0  0  0
    9.6830   45.4451   50.5710 H   0  0  0  0  0  0  0  0  0  0  0  0
   11.3364   46.1070   52.3193 H   0  0  0  0  0  0  0  0  0  0  0  0
   10.5958   47.4352   54.2964 H   0  0  0  0  0  0  0  0  0  0  0  0
    8.2078   48.1053   54.5333 H   0  0  0  0  0  0  0  0  0  0  0  0
    3.2280   46.3619   52.5214 H   0  0  0  0  0  0  0  0  0  0  0  0
    4.6361   45.8857   51.5639 H   0  0  0  0  0  0  0  0  0  0  0  0
    2.5610   44.4623   54.9996 H   0  0  0  0  0  0  0  0  0  0  0  0
  1  2  1  0
  2  3  2  0
  3  4  1  0
  4  5  1  0
  4  6  2  0
  6  7  1  0
  7  8  2  0
  8  9  1  0
  8 10  1  0
 10 11  2  0
 11 12  1  0
 12 13  2  0
 12 14  1  0
 14 15  1  0
 15 16  1  0
 16 17  1  0
 17 18  1  0
 18 19  1  0
 19 20  2  0
 20 21  1  0
 21 22  2  0
 22 23  1  0
 23 24  2  0
 17 25  1  0
 11 26  1  0
 26 27  2  0
 27  2  1  0
 26  6  1  0
 25 14  1  0
 24 19  1  0
  1 28  1  0
  1 29  1  0
  1 30  1  0
  3 31  1  0
  9 32  1  0
 10 33  1  0
 15 34  1  0
 15 35  1  0
 16 36  1  0
 16 37  1  0
 17 38  1  1
 18 39  1  0
 20 40  1  0
 21 41  1  0
 22 42  1  0
 23 43  1  0
 24 44  1  0
 25 45  1  0
 25 46  1  0
 27 47  1  0
M  END
>  <meeko>  (5) 
{"is_sidechain": [false], "free_energy": -9.182, "intermolecular_energy": -11.438, "internal_energy": -0.478}

$$$$
