ligand_21_conformer_2_docked
     RDKit          3D

 39 42  0  0  0  0  0  0  0  0999 V2000
    3.0260   42.4770   52.2790 C   0  0  0  0  0  0  0  0  0  0  0  0
    2.8010   43.9740   52.4890 C   0  0  1  0  0  0  0  0  0  0  0  0
    2.4760   44.6110   51.1980 N   0  0  0  0  0  0  0  0  0  0  0  0
    2.7630   46.0530   51.1830 C   0  0  0  0  0  0  0  0  0  0  0  0
    4.1360   46.3250   51.7260 C   0  0  0  0  0  0  0  0  0  0  0  0
    5.2270   45.9160   51.0160 N   0  0  0  0  0  0  0  0  0  0  0  0
    6.4630   46.1360   51.5220 C   0  0  0  0  0  0  0  0  0  0  0  0
    7.9440   45.7120   50.8110 S   0  0  0  0  0  0  0  0  0  0  0  0
    8.8150   46.3520   52.1090 C   0  0  0  0  0  0  0  0  0  0  0  0
    8.0030   46.8710   53.0540 C   0  0  0  0  0  0  0  0  0  0  0  0
    6.6500   46.7610   52.7430 C   0  0  0  0  0  0  0  0  0  0  0  0
    5.5330   47.1700   53.4680 C   0  0  0  0  0  0  0  0  0  0  0  0
    5.6580   47.7380   54.5860 O   0  0  0  0  0  0  0  0  0  0  0  0
    4.2930   46.9420   52.9440 N   0  0  0  0  0  0  0  0  0  0  0  0
    8.7490   47.4270   54.2010 C   0  0  0  0  0  0  0  0  0  0  0  0
   10.2280   47.1670   53.8100 C   0  0  0  0  0  0  0  0  0  0  0  0
   10.2480   46.4560   52.4320 C   0  0  0  0  0  0  0  0  0  0  0  0
    1.7210   44.2030   53.5200 C   0  0  0  0  0  0  0  0  0  0  0  0
    1.8610   44.8590   54.7380 C   0  0  0  0  0  0  0  0  0  0  0  0
    0.6740   44.8980   55.4780 C   0  0  0  0  0  0  0  0  0  0  0  0
    0.5450   45.7280   57.1910 Br  0  0  0  0  0  0  0  0  0  0  0  0
   -0.4000   44.2770   54.8560 C   0  0  0  0  0  0  0  0  0  0  0  0
    0.1300   43.6780   53.3770 S   0  0  0  0  0  0  0  0  0  0  0  0
    3.1012   41.9769   53.2559 H   0  0  0  0  0  0  0  0  0  0  0  0
    2.1812   42.0548   51.7150 H   0  0  0  0  0  0  0  0  0  0  0  0
    3.9576   42.3218   51.7150 H   0  0  0  0  0  0  0  0  0  0  0  0
    3.7215   44.4370   52.8741 H   0  0  0  0  0  0  0  0  0  0  0  0
    1.4600   44.4750   50.9880 H   0  0  0  0  0  0  0  0  0  0  0  0
    2.7038   46.4225   50.1486 H   0  0  0  0  0  0  0  0  0  0  0  0
    2.0239   46.5679   51.8143 H   0  0  0  0  0  0  0  0  0  0  0  0
    3.4510   47.2400   53.4870 H   0  0  0  0  0  0  0  0  0  0  0  0
    8.5533   48.5033   54.3164 H   0  0  0  0  0  0  0  0  0  0  0  0
    8.4676   46.9744   55.1633 H   0  0  0  0  0  0  0  0  0  0  0  0
   10.7690   48.1225   53.7437 H   0  0  0  0  0  0  0  0  0  0  0  0
   10.7163   46.5379   54.5688 H   0  0  0  0  0  0  0  0  0  0  0  0
   10.7824   47.0572   51.6817 H   0  0  0  0  0  0  0  0  0  0  0  0
   10.7670   45.4863   52.4453 H   0  0  0  0  0  0  0  0  0  0  0  0
    2.8068   45.3014   55.0840 H   0  0  0  0  0  0  0  0  0  0  0  0
   -1.4196   44.1916   55.2599 H   0  0  0  0  0  0  0  0  0  0  0  0
  1  2  1  0
  2  3  1  0
  3  4  1  0
  4  5  1  0
  5  6  2  0
  6  7  1  0
  7  8  1  0
  8  9  1  0
  9 10  2  0
 10 11  1  0
 11 12  1  0
 12 13  2  0
 12 14  1  0
 10 15  1  0
 15 16  1  0
 16 17  1  0
  2 18  1  0
 18 19  2  0
 19 20  1  0
 20 21  1  0
 20 22  2  0
 22 23  1  0
 14  5  1  0
 23 18  1  0
 11  7  2  0
 17  9  1  0
  1 24  1  0
  1 25  1  0
  1 26  1  0
  2 27  1  1
  3 28  1  0
  4 29  1  0
  4 30  1  0
 14 31  1  0
 15 32  1  0
 15 33  1  0
 16 34  1  0
 16 35  1  0
 17 36  1  0
 17 37  1  0
 19 38  1  0
 22 39  1  0
M  END
>  <meeko>  (1) 
{"is_sidechain": [false], "free_energy": -8.763, "intermolecular_energy": -10.812, "internal_energy": -0.466}

$$$$
ligand_21_conformer_2_docked
     RDKit          3D

 39 42  0  0  0  0  0  0  0  0999 V2000
    0.6030   43.3290   51.4870 C   0  0  0  0  0  0  0  0  0  0  0  0
    0.7780   42.6700   52.8550 C   0  0  1  0  0  0  0  0  0  0  0  0
    2.2060   42.3700   53.0800 N   0  0  0  0  0  0  0  0  0  0  0  0
    3.0440   42.6640   51.9080 C   0  0  0  0  0  0  0  0  0  0  0  0
    4.1480   43.6130   52.2710 C   0  0  0  0  0  0  0  0  0  0  0  0
    5.0140   44.0300   51.3010 N   0  0  0  0  0  0  0  0  0  0  0  0
    6.0270   44.8630   51.6360 C   0  0  0  0  0  0  0  0  0  0  0  0
    7.2090   45.4970   50.5980 S   0  0  0  0  0  0  0  0  0  0  0  0
    7.9500   46.3380   51.8620 C   0  0  0  0  0  0  0  0  0  0  0  0
    7.3180   46.1400   53.0380 C   0  0  0  0  0  0  0  0  0  0  0  0
    6.2120   45.2990   52.9370 C   0  0  0  0  0  0  0  0  0  0  0  0
    5.3310   44.8650   53.9250 C   0  0  0  0  0  0  0  0  0  0  0  0
    5.4650   45.2340   55.1220 O   0  0  0  0  0  0  0  0  0  0  0  0
    4.3130   44.0260   53.5710 N   0  0  0  0  0  0  0  0  0  0  0  0
    7.9590   46.8610   54.1560 C   0  0  0  0  0  0  0  0  0  0  0  0
    9.1480   47.5810   53.4670 C   0  0  0  0  0  0  0  0  0  0  0  0
    9.1260   47.2190   51.9590 C   0  0  0  0  0  0  0  0  0  0  0  0
    0.2090   43.5540   53.9400 C   0  0  0  0  0  0  0  0  0  0  0  0
    0.9230   44.2030   54.9420 C   0  0  0  0  0  0  0  0  0  0  0  0
    0.1050   44.9410   55.8050 C   0  0  0  0  0  0  0  0  0  0  0  0
    0.7860   45.9420   57.2790 Br  0  0  0  0  0  0  0  0  0  0  0  0
   -1.2470   44.8790   55.4930 C   0  0  0  0  0  0  0  0  0  0  0  0
   -1.4250   43.9010   54.1370 S   0  0  0  0  0  0  0  0  0  0  0  0
    0.3228   44.3842   51.6215 H   0  0  0  0  0  0  0  0  0  0  0  0
    1.5482   43.2691   50.9275 H   0  0  0  0  0  0  0  0  0  0  0  0
   -0.1879   42.8080   50.9275 H   0  0  0  0  0  0  0  0  0  0  0  0
    0.2224   41.7211   52.8835 H   0  0  0  0  0  0  0  0  0  0  0  0
    2.3170   41.3570   53.3180 H   0  0  0  0  0  0  0  0  0  0  0  0
    3.4817   41.7272   51.5328 H   0  0  0  0  0  0  0  0  0  0  0  0
    2.4176   43.1295   51.1328 H   0  0  0  0  0  0  0  0  0  0  0  0
    3.6530   43.6910   54.3090 H   0  0  0  0  0  0  0  0  0  0  0  0
    7.2662   47.5855   54.6088 H   0  0  0  0  0  0  0  0  0  0  0  0
    8.2690   46.1999   54.9787 H   0  0  0  0  0  0  0  0  0  0  0  0
    9.0461   48.6693   53.5902 H   0  0  0  0  0  0  0  0  0  0  0  0
   10.0986   47.2632   53.9201 H   0  0  0  0  0  0  0  0  0  0  0  0
    9.0028   48.1171   51.3360 H   0  0  0  0  0  0  0  0  0  0  0  0
   10.0564   46.7502   51.6061 H   0  0  0  0  0  0  0  0  0  0  0  0
    2.0165   44.1425   55.0453 H   0  0  0  0  0  0  0  0  0  0  0  0
   -2.0595   45.3819   56.0379 H   0  0  0  0  0  0  0  0  0  0  0  0
  1  2  1  0
  2  3  1  0
  3  4  1  0
  4  5  1  0
  5  6  2  0
  6  7  1  0
  7  8  1  0
  8  9  1  0
  9 10  2  0
 10 11  1  0
 11 12  1  0
 12 13  2  0
 12 14  1  0
 10 15  1  0
 15 16  1  0
 16 17  1  0
  2 18  1  0
 18 19  2  0
 19 20  1  0
 20 21  1  0
 20 22  2  0
 22 23  1  0
 14  5  1  0
 23 18  1  0
 11  7  2  0
 17  9  1  0
  1 24  1  0
  1 25  1  0
  1 26  1  0
  2 27  1  6
  3 28  1  0
  4 29  1  0
  4 30  1  0
 14 31  1  0
 15 32  1  0
 15 33  1  0
 16 34  1  0
 16 35  1  0
 17 36  1  0
 17 37  1  0
 19 38  1  0
 22 39  1  0
M  END
>  <meeko>  (2) 
{"is_sidechain": [false], "free_energy": -8.693, "intermolecular_energy": -10.676, "internal_energy": -0.516}

$$$$
ligand_21_conformer_2_docked
     RDKit          3D

 39 42  0  0  0  0  0  0  0  0999 V2000
    0.3530   43.4760   51.8570 C   0  0  0  0  0  0  0  0  0  0  0  0
    1.0050   42.9550   53.1380 C   0  0  1  0  0  0  0  0  0  0  0  0
    2.4670   42.8820   52.9530 N   0  0  0  0  0  0  0  0  0  0  0  0
    2.9190   43.5220   51.7090 C   0  0  0  0  0  0  0  0  0  0  0  0
    4.2460   44.1940   51.9100 C   0  0  0  0  0  0  0  0  0  0  0  0
    4.5050   44.8160   53.0970 N   0  0  0  0  0  0  0  0  0  0  0  0
    5.6900   45.4460   53.2660 C   0  0  0  0  0  0  0  0  0  0  0  0
    6.2130   46.2770   54.6500 S   0  0  0  0  0  0  0  0  0  0  0  0
    7.6860   46.6750   53.9240 C   0  0  0  0  0  0  0  0  0  0  0  0
    7.7750   46.1910   52.6670 C   0  0  0  0  0  0  0  0  0  0  0  0
    6.6450   45.4840   52.2650 C   0  0  0  0  0  0  0  0  0  0  0  0
    6.3740   44.8540   51.0520 C   0  0  0  0  0  0  0  0  0  0  0  0
    7.2130   44.8680   50.1120 O   0  0  0  0  0  0  0  0  0  0  0  0
    5.1740   44.2210   50.8970 N   0  0  0  0  0  0  0  0  0  0  0  0
    9.0540   46.5380   52.0150 C   0  0  0  0  0  0  0  0  0  0  0  0
    9.7920   47.3510   53.1100 C   0  0  0  0  0  0  0  0  0  0  0  0
    8.8720   47.4320   54.3570 C   0  0  0  0  0  0  0  0  0  0  0  0
    0.6260   43.8270   54.3120 C   0  0  0  0  0  0  0  0  0  0  0  0
   -0.6490   44.0030   54.8380 C   0  0  0  0  0  0  0  0  0  0  0  0
   -0.6760   44.8870   55.9230 C   0  0  0  0  0  0  0  0  0  0  0  0
   -2.2770   45.3350   56.8580 Br  0  0  0  0  0  0  0  0  0  0  0  0
    0.5660   45.4100   56.2560 C   0  0  0  0  0  0  0  0  0  0  0  0
    1.7030   44.7680   55.1960 S   0  0  0  0  0  0  0  0  0  0  0  0
   -0.4822   44.1434   52.1159 H   0  0  0  0  0  0  0  0  0  0  0  0
    1.0967   44.0314   51.2667 H   0  0  0  0  0  0  0  0  0  0  0  0
   -0.0246   42.6281   51.2667 H   0  0  0  0  0  0  0  0  0  0  0  0
    0.6388   41.9408   53.3554 H   0  0  0  0  0  0  0  0  0  0  0  0
    2.7680   41.8800   52.9370 H   0  0  0  0  0  0  0  0  0  0  0  0
    3.0166   42.7573   50.9243 H   0  0  0  0  0  0  0  0  0  0  0  0
    2.1796   44.2806   51.4127 H   0  0  0  0  0  0  0  0  0  0  0  0
    4.9610   43.7540   49.9870 H   0  0  0  0  0  0  0  0  0  0  0  0
    9.6189   45.6335   51.7455 H   0  0  0  0  0  0  0  0  0  0  0  0
    8.9253   47.0935   51.0743 H   0  0  0  0  0  0  0  0  0  0  0  0
   10.7345   46.8492   53.3746 H   0  0  0  0  0  0  0  0  0  0  0  0
   10.0228   48.3616   52.7420 H   0  0  0  0  0  0  0  0  0  0  0  0
    9.3457   46.9633   55.2322 H   0  0  0  0  0  0  0  0  0  0  0  0
    8.6460   48.4619   54.6705 H   0  0  0  0  0  0  0  0  0  0  0  0
   -1.5436   43.4998   54.4425 H   0  0  0  0  0  0  0  0  0  0  0  0
    0.7707   46.1202   57.0707 H   0  0  0  0  0  0  0  0  0  0  0  0
  1  2  1  0
  2  3  1  0
  3  4  1  0
  4  5  1  0
  5  6  2  0
  6  7  1  0
  7  8  1  0
  8  9  1  0
  9 10  2  0
 10 11  1  0
 11 12  1  0
 12 13  2  0
 12 14  1  0
 10 15  1  0
 15 16  1  0
 16 17  1  0
  2 18  1  0
 18 19  2  0
 19 20  1  0
 20 21  1  0
 20 22  2  0
 22 23  1  0
 14  5  1  0
 23 18  1  0
 11  7  2  0
 17  9  1  0
  1 24  1  0
  1 25  1  0
  1 26  1  0
  2 27  1  1
  3 28  1  0
  4 29  1  0
  4 30  1  0
 14 31  1  0
 15 32  1  0
 15 33  1  0
 16 34  1  0
 16 35  1  0
 17 36  1  0
 17 37  1  0
 19 38  1  0
 22 39  1  0
M  END
>  <meeko>  (3) 
{"is_sidechain": [false], "free_energy": -8.177, "intermolecular_energy": -10.133, "internal_energy": -0.422}

$$$$
ligand_21_conformer_2_docked
     RDKit          3D

 39 42  0  0  0  0  0  0  0  0999 V2000
    1.5340   44.5310   54.4130 C   0  0  0  0  0  0  0  0  0  0  0  0
    1.0600   45.0820   53.0680 C   0  0  1  0  0  0  0  0  0  0  0  0
    1.9920   44.6590   52.0040 N   0  0  0  0  0  0  0  0  0  0  0  0
    2.5580   45.7910   51.2560 C   0  0  0  0  0  0  0  0  0  0  0  0
    3.9390   46.1140   51.7490 C   0  0  0  0  0  0  0  0  0  0  0  0
    5.0170   45.7570   50.9930 N   0  0  0  0  0  0  0  0  0  0  0  0
    6.2620   46.0220   51.4530 C   0  0  0  0  0  0  0  0  0  0  0  0
    7.7300   45.6660   50.6800 S   0  0  0  0  0  0  0  0  0  0  0  0
    8.6250   46.3280   51.9510 C   0  0  0  0  0  0  0  0  0  0  0  0
    7.8300   46.8030   52.9340 C   0  0  0  0  0  0  0  0  0  0  0  0
    6.4710   46.6410   52.6730 C   0  0  0  0  0  0  0  0  0  0  0  0
    5.3680   46.9960   53.4460 C   0  0  0  0  0  0  0  0  0  0  0  0
    5.5130   47.5560   54.5650 O   0  0  0  0  0  0  0  0  0  0  0  0
    4.1190   46.7230   52.9680 N   0  0  0  0  0  0  0  0  0  0  0  0
    8.5970   47.3760   54.0570 C   0  0  0  0  0  0  0  0  0  0  0  0
   10.0690   47.1820   53.6070 C   0  0  0  0  0  0  0  0  0  0  0  0
   10.0630   46.4870   52.2200 C   0  0  0  0  0  0  0  0  0  0  0  0
   -0.3560   44.6380   52.7890 C   0  0  0  0  0  0  0  0  0  0  0  0
   -1.0020   44.6470   51.5570 C   0  0  0  0  0  0  0  0  0  0  0  0
   -2.3200   44.1830   51.6270 C   0  0  0  0  0  0  0  0  0  0  0  0
   -3.4660   44.0740   50.1050 Br  0  0  0  0  0  0  0  0  0  0  0  0
   -2.7200   43.8100   52.9030 C   0  0  0  0  0  0  0  0  0  0  0  0
   -1.4270   44.0570   53.9480 S   0  0  0  0  0  0  0  0  0  0  0  0
    1.0527   45.0905   55.2286 H   0  0  0  0  0  0  0  0  0  0  0  0
    1.2643   43.4673   54.4891 H   0  0  0  0  0  0  0  0  0  0  0  0
    2.6261   44.6387   54.4891 H   0  0  0  0  0  0  0  0  0  0  0  0
    1.0558   46.1816   53.0980 H   0  0  0  0  0  0  0  0  0  0  0  0
    1.4900   44.0360   51.3290 H   0  0  0  0  0  0  0  0  0  0  0  0
    2.6072   45.5302   50.1885 H   0  0  0  0  0  0  0  0  0  0  0  0
    1.9143   46.6706   51.4041 H   0  0  0  0  0  0  0  0  0  0  0  0
    3.2870   46.9800   53.5460 H   0  0  0  0  0  0  0  0  0  0  0  0
    8.3622   48.4420   54.1934 H   0  0  0  0  0  0  0  0  0  0  0  0
    8.3723   46.9010   55.0234 H   0  0  0  0  0  0  0  0  0  0  0  0
   10.5675   48.1597   53.5317 H   0  0  0  0  0  0  0  0  0  0  0  0
   10.6125   46.5663   54.3387 H   0  0  0  0  0  0  0  0  0  0  0  0
   10.5430   47.1175   51.4571 H   0  0  0  0  0  0  0  0  0  0  0  0
   10.6205   45.5389   52.2016 H   0  0  0  0  0  0  0  0  0  0  0  0
   -0.5259   44.9840   50.6244 H   0  0  0  0  0  0  0  0  0  0  0  0
   -3.7104   43.4207   53.1815 H   0  0  0  0  0  0  0  0  0  0  0  0
  1  2  1  0
  2  3  1  0
  3  4  1  0
  4  5  1  0
  5  6  2  0
  6  7  1  0
  7  8  1  0
  8  9  1  0
  9 10  2  0
 10 11  1  0
 11 12  1  0
 12 13  2  0
 12 14  1  0
 10 15  1  0
 15 16  1  0
 16 17  1  0
  2 18  1  0
 18 19  2  0
 19 20  1  0
 20 21  1  0
 20 22  2  0
 22 23  1  0
 14  5  1  0
 23 18  1  0
 11  7  2  0
 17  9  1  0
  1 24  1  0
  1 25  1  0
  1 26  1  0
  2 27  1  1
  3 28  1  0
  4 29  1  0
  4 30  1  0
 14 31  1  0
 15 32  1  0
 15 33  1  0
 16 34  1  0
 16 35  1  0
 17 36  1  0
 17 37  1  0
 19 38  1  0
 22 39  1  0
M  END
>  <meeko>  (4) 
{"is_sidechain": [false], "free_energy": -7.916, "intermolecular_energy": -9.886, "internal_energy": -0.347}

$$$$
ligand_21_conformer_2_docked
     RDKit          3D

 39 42  0  0  0  0  0  0  0  0999 V2000
    6.3210   43.2520   49.6570 C   0  0  0  0  0  0  0  0  0  0  0  0
    5.3310   43.9750   50.5720 C   0  0  1  0  0  0  0  0  0  0  0  0
    4.7640   43.0170   51.5400 N   0  0  0  0  0  0  0  0  0  0  0  0
    3.4420   42.5120   51.1390 C   0  0  0  0  0  0  0  0  0  0  0  0
    2.3960   42.9150   52.1360 C   0  0  0  0  0  0  0  0  0  0  0  0
    2.6990   43.8580   53.0760 N   0  0  0  0  0  0  0  0  0  0  0  0
    1.7640   44.1990   53.9930 C   0  0  0  0  0  0  0  0  0  0  0  0
    1.9290   45.3370   55.2400 S   0  0  0  0  0  0  0  0  0  0  0  0
    0.3550   45.0530   55.7850 C   0  0  0  0  0  0  0  0  0  0  0  0
   -0.2750   44.1190   55.0410 C   0  0  0  0  0  0  0  0  0  0  0  0
    0.5100   43.6130   54.0070 C   0  0  0  0  0  0  0  0  0  0  0  0
    0.2070   42.6460   53.0510 C   0  0  0  0  0  0  0  0  0  0  0  0
   -0.9200   42.0840   53.0310 O   0  0  0  0  0  0  0  0  0  0  0  0
    1.1610   42.3130   52.1320 N   0  0  0  0  0  0  0  0  0  0  0  0
   -1.6490   43.8510   55.5100 C   0  0  0  0  0  0  0  0  0  0  0  0
   -1.7950   44.8100   56.7210 C   0  0  0  0  0  0  0  0  0  0  0  0
   -0.4630   45.5880   56.8860 C   0  0  0  0  0  0  0  0  0  0  0  0
    6.0050   45.1390   51.2570 C   0  0  0  0  0  0  0  0  0  0  0  0
    7.3730   45.3800   51.3340 C   0  0  0  0  0  0  0  0  0  0  0  0
    7.6850   46.5410   52.0500 C   0  0  0  0  0  0  0  0  0  0  0  0
    9.4750   47.1390   52.3310 Br  0  0  0  0  0  0  0  0  0  0  0  0
    6.5760   47.2170   52.5400 C   0  0  0  0  0  0  0  0  0  0  0  0
    5.2010   46.3670   52.0790 S   0  0  0  0  0  0  0  0  0  0  0  0
    7.0593   42.7128   50.2688 H   0  0  0  0  0  0  0  0  0  0  0  0
    5.7781   42.5363   49.0221 H   0  0  0  0  0  0  0  0  0  0  0  0
    6.8375   43.9869   49.0221 H   0  0  0  0  0  0  0  0  0  0  0  0
    4.5031   44.3845   49.9746 H   0  0  0  0  0  0  0  0  0  0  0  0
    4.6700   43.4790   52.4750 H   0  0  0  0  0  0  0  0  0  0  0  0
    3.1807   42.9262   50.1540 H   0  0  0  0  0  0  0  0  0  0  0  0
    3.4820   41.4137   51.0926 H   0  0  0  0  0  0  0  0  0  0  0  0
    0.9430   41.5830   51.4170 H   0  0  0  0  0  0  0  0  0  0  0  0
   -2.3867   44.0853   54.7284 H   0  0  0  0  0  0  0  0  0  0  0  0
   -1.8219   42.7958   55.7681 H   0  0  0  0  0  0  0  0  0  0  0  0
   -2.6187   45.5161   56.5397 H   0  0  0  0  0  0  0  0  0  0  0  0
   -2.0169   44.2382   57.6341 H   0  0  0  0  0  0  0  0  0  0  0  0
   -0.6188   46.6713   56.7758 H   0  0  0  0  0  0  0  0  0  0  0  0
   -0.0015   45.4635   57.8767 H   0  0  0  0  0  0  0  0  0  0  0  0
    8.1310   44.7255   50.8790 H   0  0  0  0  0  0  0  0  0  0  0  0
    6.5939   48.1468   53.1275 H   0  0  0  0  0  0  0  0  0  0  0  0
  1  2  1  0
  2  3  1  0
  3  4  1  0
  4  5  1  0
  5  6  2  0
  6  7  1  0
  7  8  1  0
  8  9  1  0
  9 10  2  0
 10 11  1  0
 11 12  1  0
 12 13  2  0
 12 14  1  0
 10 15  1  0
 15 16  1  0
 16 17  1  0
  2 18  1  0
 18 19  2  0
 19 20  1  0
 20 21  1  0
 20 22  2  0
 22 23  1  0
 14  5  1  0
 23 18  1  0
 11  7  2  0
 17  9  1  0
  1 24  1  0
  1 25  1  0
  1 26  1  0
  2 27  1  6
  3 28  1  0
  4 29  1  0
  4 30  1  0
 14 31  1  0
 15 32  1  0
 15 33  1  0
 16 34  1  0
 16 35  1  0
 17 36  1  0
 17 37  1  0
 19 38  1  0
 22 39  1  0
M  END
>  <meeko>  (5) 
{"is_sidechain": [false], "free_energy": -7.834, "intermolecular_energy": -9.669, "internal_energy": -0.464}

$$$$
