MODEL 1
REMARK VINA RESULT:    -8.999      0.000      0.000
REMARK INTER + INTRA:         -10.921
REMARK INTER:                 -10.577
REMARK INTRA:                  -0.344
REMARK UNBOUND:                -0.344
REMARK SMILES C[C@@H]1OCC[C@@]1(C)NC(=O)C1CCN(c2ccc(C#N)cc2F)CC1
REMARK SMILES IDX 11 1 12 2 13 3 14 4 24 5 25 6 9 7 8 8 10 9 6 11 2 12 3 13
REMARK SMILES IDX 4 14 5 15 1 16 7 17 15 18 16 19 22 20 17 21 21 22 18 23
REMARK SMILES IDX 19 24 20 25 23 26
REMARK H PARENT 8 10
ROOT
ATOM      1  C   UNL     1       5.407  44.971  51.148  1.00  0.00     0.082 C 
ATOM      2  C   UNL     1       4.172  45.734  50.628  1.00  0.00     0.035 C 
ATOM      3  C   UNL     1       3.154  46.004  51.742  1.00  0.00     0.117 C 
ATOM      4  N   UNL     1       2.925  44.811  52.571  1.00  0.00    -0.369 N 
ATOM      5  C   UNL     1       3.534  43.525  52.203  1.00  0.00     0.117 C 
ATOM      6  C   UNL     1       5.040  43.683  51.939  1.00  0.00     0.035 C 
ENDROOT
BRANCH   1   7
ATOM      7  C   UNL     1       6.321  45.892  51.930  1.00  0.00     0.223 C 
ATOM      8  N   UNL     1       7.513  46.444  51.332  1.00  0.00    -0.348 N 
ATOM      9  O   UNL     1       6.035  46.143  53.132  1.00  0.00    -0.275 OA
ATOM     10  H   UNL     1       7.665  46.254  50.318  1.00  0.00     0.164 HD
BRANCH   8  11
ATOM     11  C   UNL     1       8.529  47.244  52.053  1.00  0.00     0.065 C 
ATOM     12  C   UNL     1       8.866  46.556  53.401  1.00  0.00     0.140 C 
ATOM     13  O   UNL     1       9.807  45.541  53.134  1.00  0.00    -0.376 OA
ATOM     14  C   UNL     1      10.469  45.877  51.932  1.00  0.00     0.163 C 
ATOM     15  C   UNL     1       9.867  47.146  51.352  1.00  0.00     0.059 C 
ATOM     16  C   UNL     1       9.441  47.477  54.489  1.00  0.00     0.041 C 
ATOM     17  C   UNL     1       8.034  48.701  52.209  1.00  0.00     0.037 C 
ENDBRANCH   8  11
ENDBRANCH   1   7
BRANCH   4  18
ATOM     18  C   UNL     1       1.970  44.879  53.648  1.00  0.00     0.073 A 
ATOM     19  C   UNL     1       0.627  44.535  53.421  1.00  0.00     0.030 A 
ATOM     20  C   UNL     1       2.366  45.281  54.939  1.00  0.00     0.147 A 
ATOM     21  C   UNL     1      -0.308  44.603  54.457  1.00  0.00     0.022 A 
ATOM     22  C   UNL     1       1.427  45.347  55.974  1.00  0.00     0.061 A 
ATOM     23  C   UNL     1       0.090  45.010  55.735  1.00  0.00     0.055 A 
ATOM     24  C   UNL     1      -0.873  45.079  56.803  1.00  0.00     0.099 C 
ATOM     25  N   UNL     1      -1.648  45.135  57.661  1.00  0.00    -0.192 NA
ATOM     26  F   UNL     1       3.663  45.579  55.204  1.00  0.00    -0.205 F 
ENDBRANCH   4  18
TORSDOF 3
ENDMDL
MODEL 2
REMARK VINA RESULT:    -8.724      0.975      1.375
REMARK INTER + INTRA:         -10.599
REMARK INTER:                 -10.356
REMARK INTRA:                  -0.243
REMARK UNBOUND:                -0.344
REMARK SMILES C[C@@H]1OCC[C@@]1(C)NC(=O)C1CCN(c2ccc(C#N)cc2F)CC1
REMARK SMILES IDX 11 1 12 2 13 3 14 4 24 5 25 6 9 7 8 8 10 9 6 11 2 12 3 13
REMARK SMILES IDX 4 14 5 15 1 16 7 17 15 18 16 19 22 20 17 21 21 22 18 23
REMARK SMILES IDX 19 24 20 25 23 26
REMARK H PARENT 8 10
ROOT
ATOM      1  C   UNL     1       5.442  44.787  51.258  1.00  0.00     0.082 C 
ATOM      2  C   UNL     1       4.248  45.595  50.711  1.00  0.00     0.035 C 
ATOM      3  C   UNL     1       3.217  45.906  51.802  1.00  0.00     0.117 C 
ATOM      4  N   UNL     1       2.926  44.724  52.628  1.00  0.00    -0.369 N 
ATOM      5  C   UNL     1       3.494  43.416  52.275  1.00  0.00     0.117 C 
ATOM      6  C   UNL     1       5.010  43.516  52.043  1.00  0.00     0.035 C 
ENDROOT
BRANCH   1   7
ATOM      7  C   UNL     1       6.374  45.676  52.057  1.00  0.00     0.223 C 
ATOM      8  N   UNL     1       7.405  46.450  51.410  1.00  0.00    -0.348 N 
ATOM      9  O   UNL     1       6.250  45.699  53.312  1.00  0.00    -0.275 OA
ATOM     10  H   UNL     1       7.419  46.440  50.367  1.00  0.00     0.164 HD
BRANCH   8  11
ATOM     11  C   UNL     1       8.439  47.241  52.116  1.00  0.00     0.065 C 
ATOM     12  C   UNL     1       8.831  46.519  53.430  1.00  0.00     0.140 C 
ATOM     13  O   UNL     1       9.772  45.523  53.101  1.00  0.00    -0.376 OA
ATOM     14  C   UNL     1      10.386  45.899  51.886  1.00  0.00     0.163 C 
ATOM     15  C   UNL     1       9.751  47.176  51.363  1.00  0.00     0.059 C 
ATOM     16  C   UNL     1       9.437  47.416  54.522  1.00  0.00     0.041 C 
ATOM     17  C   UNL     1       7.935  48.687  52.330  1.00  0.00     0.037 C 
ENDBRANCH   8  11
ENDBRANCH   1   7
BRANCH   4  18
ATOM     18  C   UNL     1       1.952  44.830  53.684  1.00  0.00     0.073 A 
ATOM     19  C   UNL     1       2.349  45.229  54.971  1.00  0.00     0.030 A 
ATOM     20  C   UNL     1       0.593  44.545  53.443  1.00  0.00     0.147 A 
ATOM     21  C   UNL     1       1.412  45.329  56.003  1.00  0.00     0.022 A 
ATOM     22  C   UNL     1      -0.342  44.647  54.479  1.00  0.00     0.061 A 
ATOM     23  C   UNL     1       0.066  45.037  55.760  1.00  0.00     0.055 A 
ATOM     24  C   UNL     1      -0.900  45.141  56.823  1.00  0.00     0.099 C 
ATOM     25  N   UNL     1      -1.675  45.224  57.678  1.00  0.00    -0.192 NA
ATOM     26  F   UNL     1       0.168  44.197  52.202  1.00  0.00    -0.205 F 
ENDBRANCH   4  18
TORSDOF 3
ENDMDL
MODEL 3
REMARK VINA RESULT:    -7.901      2.393      3.657
REMARK INTER + INTRA:          -9.631
REMARK INTER:                  -9.453
REMARK INTRA:                  -0.178
REMARK UNBOUND:                -0.344
REMARK SMILES C[C@@H]1OCC[C@@]1(C)NC(=O)C1CCN(c2ccc(C#N)cc2F)CC1
REMARK SMILES IDX 11 1 12 2 13 3 14 4 24 5 25 6 9 7 8 8 10 9 6 11 2 12 3 13
REMARK SMILES IDX 4 14 5 15 1 16 7 17 15 18 16 19 22 20 17 21 21 22 18 23
REMARK SMILES IDX 19 24 20 25 23 26
REMARK H PARENT 8 10
ROOT
ATOM      1  C   UNL     1       5.302  45.832  55.074  1.00  0.00     0.082 C 
ATOM      2  C   UNL     1       5.292  44.297  54.920  1.00  0.00     0.035 C 
ATOM      3  C   UNL     1       4.301  43.834  53.846  1.00  0.00     0.117 C 
ATOM      4  N   UNL     1       3.006  44.520  53.969  1.00  0.00    -0.369 N 
ATOM      5  C   UNL     1       2.746  45.413  55.107  1.00  0.00     0.117 C 
ATOM      6  C   UNL     1       3.883  46.433  55.280  1.00  0.00     0.035 C 
ENDROOT
BRANCH   1   7
ATOM      7  C   UNL     1       6.049  46.484  53.928  1.00  0.00     0.223 C 
ATOM      8  N   UNL     1       7.224  45.870  53.357  1.00  0.00    -0.348 N 
ATOM      9  O   UNL     1       5.640  47.598  53.502  1.00  0.00    -0.275 OA
ATOM     10  H   UNL     1       7.478  44.920  53.706  1.00  0.00     0.164 HD
BRANCH   8  11
ATOM     11  C   UNL     1       8.088  46.492  52.329  1.00  0.00     0.065 C 
ATOM     12  C   UNL     1       8.062  48.032  52.496  1.00  0.00     0.140 C 
ATOM     13  O   UNL     1       8.979  48.364  53.514  1.00  0.00    -0.376 OA
ATOM     14  C   UNL     1       9.920  47.314  53.599  1.00  0.00     0.163 C 
ATOM     15  C   UNL     1       9.545  46.207  52.628  1.00  0.00     0.059 C 
ATOM     16  C   UNL     1       8.421  48.841  51.238  1.00  0.00     0.041 C 
ATOM     17  C   UNL     1       7.656  46.014  50.923  1.00  0.00     0.037 C 
ENDBRANCH   8  11
ENDBRANCH   1   7
BRANCH   4  18
ATOM     18  C   UNL     1       1.943  44.181  53.057  1.00  0.00     0.073 A 
ATOM     19  C   UNL     1       1.437  42.872  53.021  1.00  0.00     0.030 A 
ATOM     20  C   UNL     1       1.394  45.152  52.196  1.00  0.00     0.147 A 
ATOM     21  C   UNL     1       0.411  42.532  52.136  1.00  0.00     0.022 A 
ATOM     22  C   UNL     1       0.366  44.809  51.312  1.00  0.00     0.061 A 
ATOM     23  C   UNL     1      -0.126  43.499  51.279  1.00  0.00     0.055 A 
ATOM     24  C   UNL     1      -1.184  43.148  50.367  1.00  0.00     0.099 C 
ATOM     25  N   UNL     1      -2.034  42.866  49.634  1.00  0.00    -0.192 NA
ATOM     26  F   UNL     1       1.831  46.437  52.233  1.00  0.00    -0.205 F 
ENDBRANCH   4  18
TORSDOF 3
ENDMDL
MODEL 4
REMARK VINA RESULT:    -7.647      1.729      2.405
REMARK INTER + INTRA:          -9.333
REMARK INTER:                  -9.341
REMARK INTRA:                   0.008
REMARK UNBOUND:                -0.344
REMARK SMILES C[C@@H]1OCC[C@@]1(C)NC(=O)C1CCN(c2ccc(C#N)cc2F)CC1
REMARK SMILES IDX 11 1 12 2 13 3 14 4 24 5 25 6 9 7 8 8 10 9 6 11 2 12 3 13
REMARK SMILES IDX 4 14 5 15 1 16 7 17 15 18 16 19 22 20 17 21 21 22 18 23
REMARK SMILES IDX 19 24 20 25 23 26
REMARK H PARENT 8 10
ROOT
ATOM      1  C   UNL     1       3.648  43.950  51.242  1.00  0.00     0.082 C 
ATOM      2  C   UNL     1       2.697  45.109  50.880  1.00  0.00     0.035 C 
ATOM      3  C   UNL     1       1.869  45.571  52.085  1.00  0.00     0.117 C 
ATOM      4  N   UNL     1       1.311  44.433  52.831  1.00  0.00    -0.369 N 
ATOM      5  C   UNL     1       1.463  43.065  52.316  1.00  0.00     0.117 C 
ATOM      6  C   UNL     1       2.927  42.770  51.954  1.00  0.00     0.035 C 
ENDROOT
BRANCH   1   7
ATOM      7  C   UNL     1       4.842  44.458  52.025  1.00  0.00     0.223 C 
ATOM      8  N   UNL     1       5.581  45.619  51.589  1.00  0.00    -0.348 N 
ATOM      9  O   UNL     1       5.201  43.822  53.053  1.00  0.00    -0.275 OA
ATOM     10  H   UNL     1       5.201  46.141  50.770  1.00  0.00     0.164 HD
BRANCH   8  11
ATOM     11  C   UNL     1       6.831  46.109  52.212  1.00  0.00     0.065 C 
ATOM     12  C   UNL     1       6.760  47.649  52.368  1.00  0.00     0.140 C 
ATOM     13  O   UNL     1       6.030  47.923  53.542  1.00  0.00    -0.376 OA
ATOM     14  C   UNL     1       6.119  46.786  54.376  1.00  0.00     0.163 C 
ATOM     15  C   UNL     1       6.892  45.687  53.665  1.00  0.00     0.059 C 
ATOM     16  C   UNL     1       8.116  48.369  52.462  1.00  0.00     0.041 C 
ATOM     17  C   UNL     1       8.049  45.626  51.391  1.00  0.00     0.037 C 
ENDBRANCH   8  11
ENDBRANCH   1   7
BRANCH   4  18
ATOM     18  C   UNL     1       0.478  44.688  53.978  1.00  0.00     0.073 A 
ATOM     19  C   UNL     1      -0.919  44.739  53.836  1.00  0.00     0.030 A 
ATOM     20  C   UNL     1       1.045  44.882  55.253  1.00  0.00     0.147 A 
ATOM     21  C   UNL     1      -1.735  44.991  54.942  1.00  0.00     0.022 A 
ATOM     22  C   UNL     1       0.225  45.133  56.358  1.00  0.00     0.061 A 
ATOM     23  C   UNL     1      -1.165  45.190  56.204  1.00  0.00     0.055 A 
ATOM     24  C   UNL     1      -2.007  45.449  57.344  1.00  0.00     0.099 C 
ATOM     25  N   UNL     1      -2.684  45.658  58.259  1.00  0.00    -0.192 NA
ATOM     26  F   UNL     1       2.388  44.798  55.433  1.00  0.00    -0.205 F 
ENDBRANCH   4  18
TORSDOF 3
ENDMDL
MODEL 5
REMARK VINA RESULT:    -7.506      2.998      8.014
REMARK INTER + INTRA:          -9.166
REMARK INTER:                  -8.861
REMARK INTRA:                  -0.305
REMARK UNBOUND:                -0.344
REMARK SMILES C[C@@H]1OCC[C@@]1(C)NC(=O)C1CCN(c2ccc(C#N)cc2F)CC1
REMARK SMILES IDX 11 1 12 2 13 3 14 4 24 5 25 6 9 7 8 8 10 9 6 11 2 12 3 13
REMARK SMILES IDX 4 14 5 15 1 16 7 17 15 18 16 19 22 20 17 21 21 22 18 23
REMARK SMILES IDX 19 24 20 25 23 26
REMARK H PARENT 8 10
ROOT
ATOM      1  C   UNL     1       1.318  44.191  51.889  1.00  0.00     0.082 C 
ATOM      2  C   UNL     1       2.452  43.203  51.550  1.00  0.00     0.035 C 
ATOM      3  C   UNL     1       3.775  43.595  52.219  1.00  0.00     0.117 C 
ATOM      4  N   UNL     1       4.052  45.032  52.077  1.00  0.00    -0.369 N 
ATOM      5  C   UNL     1       3.179  45.876  51.248  1.00  0.00     0.117 C 
ATOM      6  C   UNL     1       1.701  45.674  51.620  1.00  0.00     0.035 C 
ENDROOT
BRANCH   1   7
ATOM      7  C   UNL     1       0.813  43.968  53.300  1.00  0.00     0.223 C 
ATOM      8  N   UNL     1       0.148  45.020  54.030  1.00  0.00    -0.348 N 
ATOM      9  O   UNL     1       1.016  42.847  53.840  1.00  0.00    -0.275 OA
ATOM     10  H   UNL     1      -0.048  45.904  53.511  1.00  0.00     0.164 HD
BRANCH   8  11
ATOM     11  C   UNL     1      -0.262  44.937  55.450  1.00  0.00     0.065 C 
ATOM     12  C   UNL     1      -1.264  46.077  55.765  1.00  0.00     0.140 C 
ATOM     13  O   UNL     1      -2.538  45.650  55.339  1.00  0.00    -0.376 OA
ATOM     14  C   UNL     1      -2.528  44.238  55.311  1.00  0.00     0.163 C 
ATOM     15  C   UNL     1      -1.143  43.726  55.671  1.00  0.00     0.059 C 
ATOM     16  C   UNL     1      -1.359  46.485  57.244  1.00  0.00     0.041 C 
ATOM     17  C   UNL     1       0.991  44.947  56.357  1.00  0.00     0.037 C 
ENDBRANCH   8  11
ENDBRANCH   1   7
BRANCH   4  18
ATOM     18  C   UNL     1       5.273  45.568  52.621  1.00  0.00     0.073 A 
ATOM     19  C   UNL     1       5.394  45.781  54.004  1.00  0.00     0.030 A 
ATOM     20  C   UNL     1       6.361  45.879  51.782  1.00  0.00     0.147 A 
ATOM     21  C   UNL     1       6.573  46.306  54.540  1.00  0.00     0.022 A 
ATOM     22  C   UNL     1       7.540  46.403  52.322  1.00  0.00     0.061 A 
ATOM     23  C   UNL     1       7.647  46.619  53.701  1.00  0.00     0.055 A 
ATOM     24  C   UNL     1       8.862  47.159  54.254  1.00  0.00     0.099 C 
ATOM     25  N   UNL     1       9.838  47.594  54.699  1.00  0.00    -0.192 NA
ATOM     26  F   UNL     1       6.294  45.646  50.446  1.00  0.00    -0.205 F 
ENDBRANCH   4  18
TORSDOF 3
ENDMDL
