ligand_58_conformer_5_docked
     RDKit          3D

 45 48  0  0  0  0  0  0  0  0999 V2000
    4.5770   43.2140   50.8240 O   0  0  0  0  0  0  0  0  0  0  0  0
    4.5440   44.1430   51.6760 C   0  0  0  0  0  0  0  0  0  0  0  0
    5.7650   44.9460   51.9100 C   0  0  0  0  0  0  0  0  0  0  0  0
    6.6380   45.2340   50.8320 C   0  0  0  0  0  0  0  0  0  0  0  0
    7.8040   45.9860   51.0370 C   0  0  0  0  0  0  0  0  0  0  0  0
    8.0810   46.4290   52.3260 C   0  0  0  0  0  0  0  0  0  0  0  0
    9.3860   47.3290   52.8720 S   0  0  0  0  0  0  0  0  0  0  0  0
    8.8290   47.3160   54.4700 C   0  0  0  0  0  0  0  0  0  0  0  0
    7.6640   46.6340   54.5940 N   0  0  0  0  0  0  0  0  0  0  0  0
    7.2510   46.1440   53.3960 C   0  0  0  0  0  0  0  0  0  0  0  0
    6.0880   45.3980   53.2090 C   0  0  0  0  0  0  0  0  0  0  0  0
    3.3230   44.4000   52.3960 N   0  0  0  0  0  0  0  0  0  0  0  0
    2.3760   43.3000   52.6220 C   0  0  0  0  0  0  0  0  0  0  0  0
    1.4510   43.6310   53.7970 C   0  0  0  0  0  0  0  0  0  0  0  0
    0.6320   44.9540   53.5820 C   0  0  0  0  0  0  0  0  0  0  0  0
    0.4520   45.6690   54.9520 C   0  0  0  0  0  0  0  0  0  0  0  0
   -0.3690   44.8380   55.9580 C   0  0  0  0  0  0  0  0  0  0  0  0
   -1.6100   44.1520   55.3390 C   0  0  0  0  0  0  0  0  0  0  0  0
   -1.3970   42.7650   55.2540 O   0  0  0  0  0  0  0  0  0  0  0  0
   -1.9540   44.7190   53.9530 C   0  0  0  0  0  0  0  0  0  0  0  0
   -0.7770   44.6290   52.9620 C   0  0  0  0  0  0  0  0  0  0  0  0
    1.3990   45.9210   52.6160 C   0  0  0  0  0  0  0  0  0  0  0  0
    2.9220   45.7780   52.7190 C   0  0  0  0  0  0  0  0  0  0  0  0
    6.3989   44.8641   49.8240 H   0  0  0  0  0  0  0  0  0  0  0  0
    8.4806   46.2190   50.2016 H   0  0  0  0  0  0  0  0  0  0  0  0
    9.3499   47.8027   55.3077 H   0  0  0  0  0  0  0  0  0  0  0  0
    5.4316   45.1648   54.0603 H   0  0  0  0  0  0  0  0  0  0  0  0
    1.7717   43.1488   51.7154 H   0  0  0  0  0  0  0  0  0  0  0  0
    2.9389   42.3842   52.8554 H   0  0  0  0  0  0  0  0  0  0  0  0
    0.7438   42.7992   53.9310 H   0  0  0  0  0  0  0  0  0  0  0  0
    2.0859   43.7783   54.6831 H   0  0  0  0  0  0  0  0  0  0  0  0
    1.4464   45.8590   55.3823 H   0  0  0  0  0  0  0  0  0  0  0  0
   -0.0989   46.6031   54.7675 H   0  0  0  0  0  0  0  0  0  0  0  0
    0.2840   44.0588   56.3781 H   0  0  0  0  0  0  0  0  0  0  0  0
   -0.7386   45.5367   56.7229 H   0  0  0  0  0  0  0  0  0  0  0  0
   -2.4661   44.3564   55.9988 H   0  0  0  0  0  0  0  0  0  0  0  0
   -1.0590   42.4700   56.1400 H   0  0  0  0  0  0  0  0  0  0  0  0
   -2.8031   44.1529   53.5425 H   0  0  0  0  0  0  0  0  0  0  0  0
   -2.1977   45.7839   54.0819 H   0  0  0  0  0  0  0  0  0  0  0  0
   -0.7461   43.6059   52.5590 H   0  0  0  0  0  0  0  0  0  0  0  0
   -0.9607   45.3927   52.1919 H   0  0  0  0  0  0  0  0  0  0  0  0
    1.0943   45.7000   51.5824 H   0  0  0  0  0  0  0  0  0  0  0  0
    1.1425   46.9508   52.9054 H   0  0  0  0  0  0  0  0  0  0  0  0
    3.4012   46.4716   52.0124 H   0  0  0  0  0  0  0  0  0  0  0  0
    3.2372   46.0134   53.7462 H   0  0  0  0  0  0  0  0  0  0  0  0
  1  2  2  0
  2  3  1  0
  3  4  2  0
  4  5  1  0
  5  6  2  0
  6  7  1  0
  7  8  1  0
  8  9  2  0
  9 10  1  0
 10 11  2  0
  2 12  1  0
 12 13  1  0
 13 14  1  0
 14 15  1  0
 15 16  1  0
 16 17  1  0
 17 18  1  0
 18 19  1  0
 18 20  1  0
 20 21  1  0
 15 22  1  0
 22 23  1  0
 11  3  1  0
 23 12  1  0
 10  6  1  0
 21 15  1  0
  4 24  1  0
  5 25  1  0
  8 26  1  0
 11 27  1  0
 13 28  1  0
 13 29  1  0
 14 30  1  0
 14 31  1  0
 16 32  1  0
 16 33  1  0
 17 34  1  0
 17 35  1  0
 18 36  1  0
 19 37  1  0
 20 38  1  0
 20 39  1  0
 21 40  1  0
 21 41  1  0
 22 42  1  0
 22 43  1  0
 23 44  1  0
 23 45  1  0
M  END
>  <meeko>  (1) 
{"is_sidechain": [false], "free_energy": -8.255, "intermolecular_energy": -8.979, "internal_energy": -0.021}

$$$$
ligand_58_conformer_5_docked
     RDKit          3D

 45 48  0  0  0  0  0  0  0  0999 V2000
    3.6400   48.5260   53.0510 O   0  0  0  0  0  0  0  0  0  0  0  0
    4.0590   47.3380   53.1120 C   0  0  0  0  0  0  0  0  0  0  0  0
    5.5160   47.0860   53.0380 C   0  0  0  0  0  0  0  0  0  0  0  0
    6.0600   46.4110   51.9170 C   0  0  0  0  0  0  0  0  0  0  0  0
    7.4370   46.1560   51.8350 C   0  0  0  0  0  0  0  0  0  0  0  0
    8.2460   46.5750   52.8860 C   0  0  0  0  0  0  0  0  0  0  0  0
    9.9040   46.4060   53.0690 S   0  0  0  0  0  0  0  0  0  0  0  0
    9.8950   47.1740   54.5780 C   0  0  0  0  0  0  0  0  0  0  0  0
    8.6470   47.5550   54.9430 N   0  0  0  0  0  0  0  0  0  0  0  0
    7.7330   47.2210   53.9970 C   0  0  0  0  0  0  0  0  0  0  0  0
    6.3660   47.4820   54.0940 C   0  0  0  0  0  0  0  0  0  0  0  0
    3.1140   46.2610   53.2530 N   0  0  0  0  0  0  0  0  0  0  0  0
    1.7520   46.4260   52.7290 C   0  0  0  0  0  0  0  0  0  0  0  0
    1.0990   45.0570   52.5100 C   0  0  0  0  0  0  0  0  0  0  0  0
    1.0250   44.1950   53.8210 C   0  0  0  0  0  0  0  0  0  0  0  0
    1.2100   42.6940   53.4530 C   0  0  0  0  0  0  0  0  0  0  0  0
    0.0860   42.1570   52.5450 C   0  0  0  0  0  0  0  0  0  0  0  0
   -1.3300   42.6250   52.9580 C   0  0  0  0  0  0  0  0  0  0  0  0
   -1.8160   43.5570   52.0240 O   0  0  0  0  0  0  0  0  0  0  0  0
   -1.3530   43.2300   54.3690 C   0  0  0  0  0  0  0  0  0  0  0  0
   -0.3630   44.4010   54.5320 C   0  0  0  0  0  0  0  0  0  0  0  0
    2.1680   44.6060   54.8120 C   0  0  0  0  0  0  0  0  0  0  0  0
    3.4300   45.0950   54.0920 C   0  0  0  0  0  0  0  0  0  0  0  0
    5.3961   46.0838   51.1033 H   0  0  0  0  0  0  0  0  0  0  0  0
    7.8651   45.6390   50.9636 H   0  0  0  0  0  0  0  0  0  0  0  0
   10.7942   47.3433   55.1886 H   0  0  0  0  0  0  0  0  0  0  0  0
    5.9562   47.9888   54.9801 H   0  0  0  0  0  0  0  0  0  0  0  0
    1.1532   47.0030   53.4491 H   0  0  0  0  0  0  0  0  0  0  0  0
    1.7997   46.9585   51.7677 H   0  0  0  0  0  0  0  0  0  0  0  0
    0.0768   45.2124   52.1346 H   0  0  0  0  0  0  0  0  0  0  0  0
    1.7222   44.5069   51.7895 H   0  0  0  0  0  0  0  0  0  0  0  0
    2.1704   42.5765   52.9297 H   0  0  0  0  0  0  0  0  0  0  0  0
    1.1816   42.1181   54.3898 H   0  0  0  0  0  0  0  0  0  0  0  0
    0.2778   42.4987   51.5172 H   0  0  0  0  0  0  0  0  0  0  0  0
    0.0991   41.0607   52.6345 H   0  0  0  0  0  0  0  0  0  0  0  0
   -1.9814   41.7387   52.9723 H   0  0  0  0  0  0  0  0  0  0  0  0
   -1.8660   43.0910   51.1490 H   0  0  0  0  0  0  0  0  0  0  0  0
   -2.3688   43.5966   54.5779 H   0  0  0  0  0  0  0  0  0  0  0  0
   -1.0519   42.4406   55.0733 H   0  0  0  0  0  0  0  0  0  0  0  0
   -0.8305   45.3050   54.1146 H   0  0  0  0  0  0  0  0  0  0  0  0
   -0.1509   44.4797   55.6085 H   0  0  0  0  0  0  0  0  0  0  0  0
    1.7977   45.4139   55.4603 H   0  0  0  0  0  0  0  0  0  0  0  0
    2.4421   43.7119   55.3912 H   0  0  0  0  0  0  0  0  0  0  0  0
    4.1876   45.3780   54.8376 H   0  0  0  0  0  0  0  0  0  0  0  0
    3.8163   44.2866   53.4538 H   0  0  0  0  0  0  0  0  0  0  0  0
  1  2  2  0
  2  3  1  0
  3  4  2  0
  4  5  1  0
  5  6  2  0
  6  7  1  0
  7  8  1  0
  8  9  2  0
  9 10  1  0
 10 11  2  0
  2 12  1  0
 12 13  1  0
 13 14  1  0
 14 15  1  0
 15 16  1  0
 16 17  1  0
 17 18  1  0
 18 19  1  0
 18 20  1  0
 20 21  1  0
 15 22  1  0
 22 23  1  0
 11  3  1  0
 23 12  1  0
 10  6  1  0
 21 15  1  0
  4 24  1  0
  5 25  1  0
  8 26  1  0
 11 27  1  0
 13 28  1  0
 13 29  1  0
 14 30  1  0
 14 31  1  0
 16 32  1  0
 16 33  1  0
 17 34  1  0
 17 35  1  0
 18 36  1  0
 19 37  1  0
 20 38  1  0
 20 39  1  0
 21 40  1  0
 21 41  1  0
 22 42  1  0
 22 43  1  0
 23 44  1  0
 23 45  1  0
M  END
>  <meeko>  (2) 
{"is_sidechain": [false], "free_energy": -8.228, "intermolecular_energy": -8.7, "internal_energy": -0.271}

$$$$
ligand_58_conformer_5_docked
     RDKit          3D

 45 48  0  0  0  0  0  0  0  0999 V2000
    2.7820   44.9560   55.4320 O   0  0  0  0  0  0  0  0  0  0  0  0
    2.9270   44.9460   54.1790 C   0  0  0  0  0  0  0  0  0  0  0  0
    1.8080   44.4770   53.3310 C   0  0  0  0  0  0  0  0  0  0  0  0
    1.8400   43.1730   52.7770 C   0  0  0  0  0  0  0  0  0  0  0  0
    0.7930   42.7150   51.9640 C   0  0  0  0  0  0  0  0  0  0  0  0
   -0.2670   43.5800   51.7100 C   0  0  0  0  0  0  0  0  0  0  0  0
   -1.6380   43.3200   50.7810 S   0  0  0  0  0  0  0  0  0  0  0  0
   -2.2340   44.8760   51.0820 C   0  0  0  0  0  0  0  0  0  0  0  0
   -1.4030   45.5900   51.8780 N   0  0  0  0  0  0  0  0  0  0  0  0
   -0.3100   44.8630   52.2270 C   0  0  0  0  0  0  0  0  0  0  0  0
    0.7240   45.3330   53.0370 C   0  0  0  0  0  0  0  0  0  0  0  0
    4.1720   45.3910   53.6080 N   0  0  0  0  0  0  0  0  0  0  0  0
    5.4080   45.2630   54.3900 C   0  0  0  0  0  0  0  0  0  0  0  0
    6.6270   45.2930   53.4610 C   0  0  0  0  0  0  0  0  0  0  0  0
    6.7150   46.6060   52.6040 C   0  0  0  0  0  0  0  0  0  0  0  0
    7.3140   46.2640   51.2100 C   0  0  0  0  0  0  0  0  0  0  0  0
    8.7580   45.7300   51.2920 C   0  0  0  0  0  0  0  0  0  0  0  0
    9.6560   46.5030   52.2870 C   0  0  0  0  0  0  0  0  0  0  0  0
    9.9150   45.7050   53.4150 O   0  0  0  0  0  0  0  0  0  0  0  0
    9.0290   47.8380   52.7170 C   0  0  0  0  0  0  0  0  0  0  0  0
    7.6240   47.6680   53.3270 C   0  0  0  0  0  0  0  0  0  0  0  0
    5.2880   47.2190   52.3940 C   0  0  0  0  0  0  0  0  0  0  0  0
    4.1860   46.1550   52.3510 C   0  0  0  0  0  0  0  0  0  0  0  0
    2.6948   42.5133   52.9868 H   0  0  0  0  0  0  0  0  0  0  0  0
    0.8093   41.7005   51.5391 H   0  0  0  0  0  0  0  0  0  0  0  0
   -3.1825   45.2608   50.6792 H   0  0  0  0  0  0  0  0  0  0  0  0
    0.6953   46.3558   53.4409 H   0  0  0  0  0  0  0  0  0  0  0  0
    5.4745   46.0972   55.1039 H   0  0  0  0  0  0  0  0  0  0  0  0
    5.3928   44.3058   54.9318 H   0  0  0  0  0  0  0  0  0  0  0  0
    7.5367   45.2133   54.0742 H   0  0  0  0  0  0  0  0  0  0  0  0
    6.5275   44.4501   52.7612 H   0  0  0  0  0  0  0  0  0  0  0  0
    6.6830   45.4982   50.7352 H   0  0  0  0  0  0  0  0  0  0  0  0
    7.3390   47.1947   50.6242 H   0  0  0  0  0  0  0  0  0  0  0  0
    8.7205   44.6763   51.6057 H   0  0  0  0  0  0  0  0  0  0  0  0
    9.2031   45.8576   50.2942 H   0  0  0  0  0  0  0  0  0  0  0  0
   10.5996   46.7356   51.7717 H   0  0  0  0  0  0  0  0  0  0  0  0
    9.0530   45.2910   53.6810 H   0  0  0  0  0  0  0  0  0  0  0  0
    9.6829   48.3085   53.4660 H   0  0  0  0  0  0  0  0  0  0  0  0
    8.9263   48.4613   51.8165 H   0  0  0  0  0  0  0  0  0  0  0  0
    7.7415   47.3601   54.3765 H   0  0  0  0  0  0  0  0  0  0  0  0
    7.1176   48.6379   53.2134 H   0  0  0  0  0  0  0  0  0  0  0  0
    5.0769   47.9105   53.2230 H   0  0  0  0  0  0  0  0  0  0  0  0
    5.2886   47.7352   51.4226 H   0  0  0  0  0  0  0  0  0  0  0  0
    3.2114   46.6459   52.2127 H   0  0  0  0  0  0  0  0  0  0  0  0
    4.3810   45.4681   51.5142 H   0  0  0  0  0  0  0  0  0  0  0  0
  1  2  2  0
  2  3  1  0
  3  4  2  0
  4  5  1  0
  5  6  2  0
  6  7  1  0
  7  8  1  0
  8  9  2  0
  9 10  1  0
 10 11  2  0
  2 12  1  0
 12 13  1  0
 13 14  1  0
 14 15  1  0
 15 16  1  0
 16 17  1  0
 17 18  1  0
 18 19  1  0
 18 20  1  0
 20 21  1  0
 15 22  1  0
 22 23  1  0
 11  3  1  0
 23 12  1  0
 10  6  1  0
 21 15  1  0
  4 24  1  0
  5 25  1  0
  8 26  1  0
 11 27  1  0
 13 28  1  0
 13 29  1  0
 14 30  1  0
 14 31  1  0
 16 32  1  0
 16 33  1  0
 17 34  1  0
 17 35  1  0
 18 36  1  0
 19 37  1  0
 20 38  1  0
 20 39  1  0
 21 40  1  0
 21 41  1  0
 22 42  1  0
 22 43  1  0
 23 44  1  0
 23 45  1  0
M  END
>  <meeko>  (3) 
{"is_sidechain": [false], "free_energy": -8.224, "intermolecular_energy": -8.707, "internal_energy": -0.259}

$$$$
ligand_58_conformer_5_docked
     RDKit          3D

 45 48  0  0  0  0  0  0  0  0999 V2000
    7.2690   41.7010   49.8630 O   0  0  0  0  0  0  0  0  0  0  0  0
    6.0990   42.1020   49.6100 C   0  0  0  0  0  0  0  0  0  0  0  0
    5.3960   41.5630   48.4260 C   0  0  0  0  0  0  0  0  0  0  0  0
    5.7220   42.0400   47.1320 C   0  0  0  0  0  0  0  0  0  0  0  0
    5.0590   41.5460   45.9990 C   0  0  0  0  0  0  0  0  0  0  0  0
    4.0700   40.5860   46.1840 C   0  0  0  0  0  0  0  0  0  0  0  0
    3.1140   39.8260   45.0360 S   0  0  0  0  0  0  0  0  0  0  0  0
    2.2880   38.9220   46.2060 C   0  0  0  0  0  0  0  0  0  0  0  0
    2.7300   39.1930   47.4580 N   0  0  0  0  0  0  0  0  0  0  0  0
    3.7240   40.1180   47.4400 C   0  0  0  0  0  0  0  0  0  0  0  0
    4.3730   40.6000   48.5760 C   0  0  0  0  0  0  0  0  0  0  0  0
    5.4810   43.0700   50.4790 N   0  0  0  0  0  0  0  0  0  0  0  0
    6.3270   44.0120   51.2250 C   0  0  0  0  0  0  0  0  0  0  0  0
    5.5080   45.2350   51.6510 C   0  0  0  0  0  0  0  0  0  0  0  0
    4.2700   44.8650   52.5440 C   0  0  0  0  0  0  0  0  0  0  0  0
    3.1020   45.8430   52.2240 C   0  0  0  0  0  0  0  0  0  0  0  0
    3.4350   47.3080   52.5700 C   0  0  0  0  0  0  0  0  0  0  0  0
    4.1640   47.4820   53.9230 C   0  0  0  0  0  0  0  0  0  0  0  0
    5.5050   47.8400   53.7010 O   0  0  0  0  0  0  0  0  0  0  0  0
    4.0920   46.2140   54.7880 C   0  0  0  0  0  0  0  0  0  0  0  0
    4.6470   44.9690   54.0680 C   0  0  0  0  0  0  0  0  0  0  0  0
    3.7910   43.4040   52.2390 C   0  0  0  0  0  0  0  0  0  0  0  0
    4.0440   42.9890   50.7850 C   0  0  0  0  0  0  0  0  0  0  0  0
    6.5031   42.8056   47.0149 H   0  0  0  0  0  0  0  0  0  0  0  0
    5.3142   41.9079   44.9921 H   0  0  0  0  0  0  0  0  0  0  0  0
    1.4889   38.2016   45.9771 H   0  0  0  0  0  0  0  0  0  0  0  0
    4.0925   40.2356   49.5752 H   0  0  0  0  0  0  0  0  0  0  0  0
    6.7259   43.5120   52.1199 H   0  0  0  0  0  0  0  0  0  0  0  0
    7.1542   44.3411   50.5789 H   0  0  0  0  0  0  0  0  0  0  0  0
    6.1608   45.9127   52.2206 H   0  0  0  0  0  0  0  0  0  0  0  0
    5.1232   45.7080   50.7355 H   0  0  0  0  0  0  0  0  0  0  0  0
    2.8748   45.7789   51.1496 H   0  0  0  0  0  0  0  0  0  0  0  0
    2.2426   45.5447   52.8424 H   0  0  0  0  0  0  0  0  0  0  0  0
    4.0781   47.7140   51.7753 H   0  0  0  0  0  0  0  0  0  0  0  0
    2.4771   47.8424   52.6523 H   0  0  0  0  0  0  0  0  0  0  0  0
    3.6521   48.2842   54.4748 H   0  0  0  0  0  0  0  0  0  0  0  0
    5.7780   48.4240   54.4550 H   0  0  0  0  0  0  0  0  0  0  0  0
    4.6768   46.3800   55.7048 H   0  0  0  0  0  0  0  0  0  0  0  0
    3.0316   46.0237   55.0101 H   0  0  0  0  0  0  0  0  0  0  0  0
    5.7439   44.9877   54.1486 H   0  0  0  0  0  0  0  0  0  0  0  0
    4.1903   44.0976   54.5600 H   0  0  0  0  0  0  0  0  0  0  0  0
    4.3307   42.7113   52.9015 H   0  0  0  0  0  0  0  0  0  0  0  0
    2.7050   43.3682   52.4102 H   0  0  0  0  0  0  0  0  0  0  0  0
    3.6980   41.9555   50.6361 H   0  0  0  0  0  0  0  0  0  0  0  0
    3.4945   43.6676   50.1160 H   0  0  0  0  0  0  0  0  0  0  0  0
  1  2  2  0
  2  3  1  0
  3  4  2  0
  4  5  1  0
  5  6  2  0
  6  7  1  0
  7  8  1  0
  8  9  2  0
  9 10  1  0
 10 11  2  0
  2 12  1  0
 12 13  1  0
 13 14  1  0
 14 15  1  0
 15 16  1  0
 16 17  1  0
 17 18  1  0
 18 19  1  0
 18 20  1  0
 20 21  1  0
 15 22  1  0
 22 23  1  0
 11  3  1  0
 23 12  1  0
 10  6  1  0
 21 15  1  0
  4 24  1  0
  5 25  1  0
  8 26  1  0
 11 27  1  0
 13 28  1  0
 13 29  1  0
 14 30  1  0
 14 31  1  0
 16 32  1  0
 16 33  1  0
 17 34  1  0
 17 35  1  0
 18 36  1  0
 19 37  1  0
 20 38  1  0
 20 39  1  0
 21 40  1  0
 21 41  1  0
 22 42  1  0
 22 43  1  0
 23 44  1  0
 23 45  1  0
M  END
>  <meeko>  (4) 
{"is_sidechain": [false], "free_energy": -8.027, "intermolecular_energy": -8.708, "internal_energy": -0.043}

$$$$
ligand_58_conformer_5_docked
     RDKit          3D

 45 48  0  0  0  0  0  0  0  0999 V2000
    3.6840   42.2350   52.0770 O   0  0  0  0  0  0  0  0  0  0  0  0
    3.3940   43.4270   52.3720 C   0  0  0  0  0  0  0  0  0  0  0  0
    1.9700   43.8100   52.4910 C   0  0  0  0  0  0  0  0  0  0  0  0
    1.3400   44.5250   51.4420 C   0  0  0  0  0  0  0  0  0  0  0  0
   -0.0070   44.9040   51.5420 C   0  0  0  0  0  0  0  0  0  0  0  0
   -0.6980   44.5680   52.7020 C   0  0  0  0  0  0  0  0  0  0  0  0
   -2.2930   44.8900   53.1050 S   0  0  0  0  0  0  0  0  0  0  0  0
   -2.1470   44.1350   54.6140 C   0  0  0  0  0  0  0  0  0  0  0  0
   -0.9000   43.6440   54.8140 N   0  0  0  0  0  0  0  0  0  0  0  0
   -0.0980   43.8860   53.7450 C   0  0  0  0  0  0  0  0  0  0  0  0
    1.2400   43.5020   53.6610 C   0  0  0  0  0  0  0  0  0  0  0  0
    4.4530   44.3800   52.5850 N   0  0  0  0  0  0  0  0  0  0  0  0
    5.7390   44.1910   51.9020 C   0  0  0  0  0  0  0  0  0  0  0  0
    6.5040   45.5170   51.8400 C   0  0  0  0  0  0  0  0  0  0  0  0
    6.7810   46.1350   53.2570 C   0  0  0  0  0  0  0  0  0  0  0  0
    6.7170   47.6860   53.1560 C   0  0  0  0  0  0  0  0  0  0  0  0
    7.8050   48.2730   52.2340 C   0  0  0  0  0  0  0  0  0  0  0  0
    9.1980   47.6230   52.4160 C   0  0  0  0  0  0  0  0  0  0  0  0
    9.5020   46.8250   51.3000 O   0  0  0  0  0  0  0  0  0  0  0  0
    9.2840   46.7870   53.7020 C   0  0  0  0  0  0  0  0  0  0  0  0
    8.1990   45.6940   53.7770 C   0  0  0  0  0  0  0  0  0  0  0  0
    5.6950   45.6600   54.2830 C   0  0  0  0  0  0  0  0  0  0  0  0
    4.3310   45.4100   53.6290 C   0  0  0  0  0  0  0  0  0  0  0  0
    1.9132   44.7855   50.5400 H   0  0  0  0  0  0  0  0  0  0  0  0
   -0.5027   45.4512   50.7266 H   0  0  0  0  0  0  0  0  0  0  0  0
   -2.9659   44.0531   55.3439 H   0  0  0  0  0  0  0  0  0  0  0  0
    1.7202   42.9670   54.4936 H   0  0  0  0  0  0  0  0  0  0  0  0
    6.3380   43.4511   52.4531 H   0  0  0  0  0  0  0  0  0  0  0  0
    5.5531   43.8352   50.8779 H   0  0  0  0  0  0  0  0  0  0  0  0
    7.4679   45.3420   51.3398 H   0  0  0  0  0  0  0  0  0  0  0  0
    5.8770   46.2320   51.2871 H   0  0  0  0  0  0  0  0  0  0  0  0
    5.7308   47.9716   52.7611 H   0  0  0  0  0  0  0  0  0  0  0  0
    6.8866   48.0897   54.1651 H   0  0  0  0  0  0  0  0  0  0  0  0
    7.4892   48.1291   51.1902 H   0  0  0  0  0  0  0  0  0  0  0  0
    7.9106   49.3350   52.5003 H   0  0  0  0  0  0  0  0  0  0  0  0
    9.9345   48.4353   52.5036 H   0  0  0  0  0  0  0  0  0  0  0  0
    9.0770   47.2550   50.5130 H   0  0  0  0  0  0  0  0  0  0  0  0
   10.2720   46.3050   53.7426 H   0  0  0  0  0  0  0  0  0  0  0  0
    9.1275   47.4683   54.5513 H   0  0  0  0  0  0  0  0  0  0  0  0
    8.5337   44.8376   53.1733 H   0  0  0  0  0  0  0  0  0  0  0  0
    8.0764   45.4521   54.8430 H   0  0  0  0  0  0  0  0  0  0  0  0
    6.0377   44.7250   54.7503 H   0  0  0  0  0  0  0  0  0  0  0  0
    5.5655   46.4622   55.0244 H   0  0  0  0  0  0  0  0  0  0  0  0
    3.6173   45.0702   54.3940 H   0  0  0  0  0  0  0  0  0  0  0  0
    3.9731   46.3449   53.1730 H   0  0  0  0  0  0  0  0  0  0  0  0
  1  2  2  0
  2  3  1  0
  3  4  2  0
  4  5  1  0
  5  6  2  0
  6  7  1  0
  7  8  1  0
  8  9  2  0
  9 10  1  0
 10 11  2  0
  2 12  1  0
 12 13  1  0
 13 14  1  0
 14 15  1  0
 15 16  1  0
 16 17  1  0
 17 18  1  0
 18 19  1  0
 18 20  1  0
 20 21  1  0
 15 22  1  0
 22 23  1  0
 11  3  1  0
 23 12  1  0
 10  6  1  0
 21 15  1  0
  4 24  1  0
  5 25  1  0
  8 26  1  0
 11 27  1  0
 13 28  1  0
 13 29  1  0
 14 30  1  0
 14 31  1  0
 16 32  1  0
 16 33  1  0
 17 34  1  0
 17 35  1  0
 18 36  1  0
 19 37  1  0
 20 38  1  0
 20 39  1  0
 21 40  1  0
 21 41  1  0
 22 42  1  0
 22 43  1  0
 23 44  1  0
 23 45  1  0
M  END
>  <meeko>  (5) 
{"is_sidechain": [false], "free_energy": -7.914, "intermolecular_energy": -8.367, "internal_energy": -0.262}

$$$$
