ligand_25_conformer_2_docked
     RDKit          3D

 34 35  0  0  0  0  0  0  0  0999 V2000
   -0.9280   45.1970   56.6200 N   0  0  0  0  0  0  0  0  0  0  0  0
    0.3150   45.1130   55.9190 C   0  0  0  0  0  0  0  0  0  0  0  0
    0.4110   44.3810   54.7320 C   0  0  0  0  0  0  0  0  0  0  0  0
    1.6360   44.3150   54.0650 C   0  0  0  0  0  0  0  0  0  0  0  0
    2.7620   44.9700   54.5870 C   0  0  0  0  0  0  0  0  0  0  0  0
    4.0630   44.9080   53.8780 C   0  0  0  0  0  0  0  0  0  0  0  0
    5.0440   44.3340   54.4260 O   0  0  0  0  0  0  0  0  0  0  0  0
    4.2330   45.5240   52.5900 N   0  0  0  0  0  0  0  0  0  0  0  0
    5.3330   45.2170   51.7200 C   0  0  0  0  0  0  0  0  0  0  0  0
    5.2220   44.1300   50.8420 C   0  0  0  0  0  0  0  0  0  0  0  0
    6.2720   43.8040   49.9810 C   0  0  0  0  0  0  0  0  0  0  0  0
    7.4500   44.5530   50.0010 C   0  0  0  0  0  0  0  0  0  0  0  0
    8.7660   44.1400   48.9170 Cl  0  0  0  0  0  0  0  0  0  0  0  0
    7.5860   45.6220   50.8920 C   0  0  0  0  0  0  0  0  0  0  0  0
    6.5340   45.9610   51.7690 C   0  0  0  0  0  0  0  0  0  0  0  0
    6.6520   46.9900   52.7200 O   0  0  0  0  0  0  0  0  0  0  0  0
    7.4260   46.9490   53.9200 C   0  0  0  0  0  0  0  0  0  0  0  0
    8.8140   47.5490   53.7000 C   0  0  0  0  0  0  0  0  0  0  0  0
    9.7410   46.5360   53.5380 F   0  0  0  0  0  0  0  0  0  0  0  0
    9.1850   48.3330   54.7770 F   0  0  0  0  0  0  0  0  0  0  0  0
    8.8020   48.3330   52.5610 F   0  0  0  0  0  0  0  0  0  0  0  0
    2.6140   45.7020   55.7780 C   0  0  0  0  0  0  0  0  0  0  0  0
    1.4100   45.7530   56.4080 N   0  0  0  0  0  0  0  0  0  0  0  0
   -1.2900   46.1150   56.9620 H   0  0  0  0  0  0  0  0  0  0  0  0
   -1.4890   44.3350   56.7970 H   0  0  0  0  0  0  0  0  0  0  0  0
   -0.4702   43.8618   54.3271 H   0  0  0  0  0  0  0  0  0  0  0  0
    1.7187   43.7472   53.1265 H   0  0  0  0  0  0  0  0  0  0  0  0
    3.6460   46.3570   52.3600 H   0  0  0  0  0  0  0  0  0  0  0  0
    4.3007   43.5291   50.8311 H   0  0  0  0  0  0  0  0  0  0  0  0
    6.1709   42.9568   49.2868 H   0  0  0  0  0  0  0  0  0  0  0  0
    8.5199   46.2029   50.9093 H   0  0  0  0  0  0  0  0  0  0  0  0
    6.9067   47.5221   54.7022 H   0  0  0  0  0  0  0  0  0  0  0  0
    7.5437   45.8985   54.2242 H   0  0  0  0  0  0  0  0  0  0  0  0
    3.4767   46.2363   56.2026 H   0  0  0  0  0  0  0  0  0  0  0  0
  1  2  1  0
  2  3  2  0
  3  4  1  0
  4  5  2  0
  5  6  1  0
  6  7  2  0
  6  8  1  0
  8  9  1  0
  9 10  2  0
 10 11  1  0
 11 12  2  0
 12 13  1  0
 12 14  1  0
 14 15  2  0
 15 16  1  0
 16 17  1  0
 17 18  1  0
 18 19  1  0
 18 20  1  0
 18 21  1  0
  5 22  1  0
 22 23  2  0
 23  2  1  0
 15  9  1  0
  1 24  1  0
  1 25  1  0
  3 26  1  0
  4 27  1  0
  8 28  1  0
 10 29  1  0
 11 30  1  0
 14 31  1  0
 17 32  1  0
 17 33  1  0
 22 34  1  0
M  END
>  <meeko>  (1) 
{"is_sidechain": [false], "free_energy": -7.881, "intermolecular_energy": -10.415, "internal_energy": -0.889}

$$$$
ligand_25_conformer_2_docked
     RDKit          3D

 34 35  0  0  0  0  0  0  0  0999 V2000
   -1.6720   42.2140   51.7440 N   0  0  0  0  0  0  0  0  0  0  0  0
   -0.3810   42.7750   51.9870 C   0  0  0  0  0  0  0  0  0  0  0  0
    0.2980   42.5040   53.1780 C   0  0  0  0  0  0  0  0  0  0  0  0
    1.5590   43.0640   53.3910 C   0  0  0  0  0  0  0  0  0  0  0  0
    2.1360   43.8990   52.4210 C   0  0  0  0  0  0  0  0  0  0  0  0
    3.4780   44.4900   52.6400 C   0  0  0  0  0  0  0  0  0  0  0  0
    4.1340   44.1780   53.6720 O   0  0  0  0  0  0  0  0  0  0  0  0
    4.0290   45.4390   51.7120 N   0  0  0  0  0  0  0  0  0  0  0  0
    5.4230   45.7810   51.6830 C   0  0  0  0  0  0  0  0  0  0  0  0
    5.8680   46.8820   52.4300 C   0  0  0  0  0  0  0  0  0  0  0  0
    7.2160   47.2420   52.4260 C   0  0  0  0  0  0  0  0  0  0  0  0
    8.1320   46.5150   51.6640 C   0  0  0  0  0  0  0  0  0  0  0  0
    9.8260   46.9700   51.6630 Cl  0  0  0  0  0  0  0  0  0  0  0  0
    7.6980   45.4330   50.8920 C   0  0  0  0  0  0  0  0  0  0  0  0
    6.3380   45.0590   50.8840 C   0  0  0  0  0  0  0  0  0  0  0  0
    5.8500   44.0150   50.0770 O   0  0  0  0  0  0  0  0  0  0  0  0
    6.6370   43.0570   49.3670 C   0  0  0  0  0  0  0  0  0  0  0  0
    6.2640   41.6310   49.7710 C   0  0  0  0  0  0  0  0  0  0  0  0
    5.2980   41.6630   50.7610 F   0  0  0  0  0  0  0  0  0  0  0  0
    7.3710   40.9500   50.2420 F   0  0  0  0  0  0  0  0  0  0  0  0
    5.7590   40.9590   48.6740 F   0  0  0  0  0  0  0  0  0  0  0  0
    1.4190   44.1350   51.2350 C   0  0  0  0  0  0  0  0  0  0  0  0
    0.1930   43.5760   51.0500 N   0  0  0  0  0  0  0  0  0  0  0  0
   -2.5400   42.7170   52.0350 H   0  0  0  0  0  0  0  0  0  0  0  0
   -1.7610   41.2880   51.2700 H   0  0  0  0  0  0  0  0  0  0  0  0
   -0.1571   41.8552   53.9409 H   0  0  0  0  0  0  0  0  0  0  0  0
    2.1029   42.8501   54.3229 H   0  0  0  0  0  0  0  0  0  0  0  0
    3.3680   46.0400   51.1690 H   0  0  0  0  0  0  0  0  0  0  0  0
    5.1488   47.4658   53.0233 H   0  0  0  0  0  0  0  0  0  0  0  0
    7.5573   48.0998   53.0241 H   0  0  0  0  0  0  0  0  0  0  0  0
    8.4227   44.8692   50.2863 H   0  0  0  0  0  0  0  0  0  0  0  0
    6.4662   43.1809   48.2874 H   0  0  0  0  0  0  0  0  0  0  0  0
    7.6962   43.2240   49.6124 H   0  0  0  0  0  0  0  0  0  0  0  0
    1.8519   44.7753   50.4523 H   0  0  0  0  0  0  0  0  0  0  0  0
  1  2  1  0
  2  3  2  0
  3  4  1  0
  4  5  2  0
  5  6  1  0
  6  7  2  0
  6  8  1  0
  8  9  1  0
  9 10  2  0
 10 11  1  0
 11 12  2  0
 12 13  1  0
 12 14  1  0
 14 15  2  0
 15 16  1  0
 16 17  1  0
 17 18  1  0
 18 19  1  0
 18 20  1  0
 18 21  1  0
  5 22  1  0
 22 23  2  0
 23  2  1  0
 15  9  1  0
  1 24  1  0
  1 25  1  0
  3 26  1  0
  4 27  1  0
  8 28  1  0
 10 29  1  0
 11 30  1  0
 14 31  1  0
 17 32  1  0
 17 33  1  0
 22 34  1  0
M  END
>  <meeko>  (2) 
{"is_sidechain": [false], "free_energy": -7.736, "intermolecular_energy": -10.345, "internal_energy": -0.767}

$$$$
ligand_25_conformer_2_docked
     RDKit          3D

 34 35  0  0  0  0  0  0  0  0999 V2000
    8.3740   43.6230   48.6650 N   0  0  0  0  0  0  0  0  0  0  0  0
    7.2190   43.6000   49.5060 C   0  0  0  0  0  0  0  0  0  0  0  0
    6.8080   44.7550   50.1770 C   0  0  0  0  0  0  0  0  0  0  0  0
    5.6760   44.7070   50.9930 C   0  0  0  0  0  0  0  0  0  0  0  0
    4.9620   43.5070   51.1440 C   0  0  0  0  0  0  0  0  0  0  0  0
    3.7550   43.4540   52.0030 C   0  0  0  0  0  0  0  0  0  0  0  0
    3.3230   42.3380   52.4010 O   0  0  0  0  0  0  0  0  0  0  0  0
    3.0490   44.6550   52.3610 N   0  0  0  0  0  0  0  0  0  0  0  0
    2.1010   44.7080   53.4380 C   0  0  0  0  0  0  0  0  0  0  0  0
    0.7400   44.5230   53.1550 C   0  0  0  0  0  0  0  0  0  0  0  0
   -0.2090   44.5680   54.1780 C   0  0  0  0  0  0  0  0  0  0  0  0
    0.1920   44.8120   55.4920 C   0  0  0  0  0  0  0  0  0  0  0  0
   -1.0040   44.8660   56.7750 Cl  0  0  0  0  0  0  0  0  0  0  0  0
    1.5420   45.0280   55.7850 C   0  0  0  0  0  0  0  0  0  0  0  0
    2.5110   44.9890   54.7610 C   0  0  0  0  0  0  0  0  0  0  0  0
    3.8710   45.2570   55.0030 O   0  0  0  0  0  0  0  0  0  0  0  0
    4.4900   46.5440   55.0150 C   0  0  0  0  0  0  0  0  0  0  0  0
    5.8320   46.5160   54.2840 C   0  0  0  0  0  0  0  0  0  0  0  0
    6.7920   47.1590   55.0440 F   0  0  0  0  0  0  0  0  0  0  0  0
    5.7340   47.1430   53.0560 F   0  0  0  0  0  0  0  0  0  0  0  0
    6.2200   45.2050   54.0860 F   0  0  0  0  0  0  0  0  0  0  0  0
    5.4090   42.3750   50.4420 C   0  0  0  0  0  0  0  0  0  0  0  0
    6.5130   42.4470   49.6510 N   0  0  0  0  0  0  0  0  0  0  0  0
    8.7840   44.5270   48.3410 H   0  0  0  0  0  0  0  0  0  0  0  0
    8.8210   42.7290   48.3630 H   0  0  0  0  0  0  0  0  0  0  0  0
    7.3710   45.6931   50.0633 H   0  0  0  0  0  0  0  0  0  0  0  0
    5.3419   45.6130   51.5199 H   0  0  0  0  0  0  0  0  0  0  0  0
    3.0820   45.4630   51.7000 H   0  0  0  0  0  0  0  0  0  0  0  0
    0.4177   44.3410   52.1191 H   0  0  0  0  0  0  0  0  0  0  0  0
   -1.2732   44.4111   53.9481 H   0  0  0  0  0  0  0  0  0  0  0  0
    1.8504   45.2298   56.8214 H   0  0  0  0  0  0  0  0  0  0  0  0
    3.8257   47.2668   54.5188 H   0  0  0  0  0  0  0  0  0  0  0  0
    4.6676   46.8365   56.0604 H   0  0  0  0  0  0  0  0  0  0  0  0
    4.8626   41.4246   50.5327 H   0  0  0  0  0  0  0  0  0  0  0  0
  1  2  1  0
  2  3  2  0
  3  4  1  0
  4  5  2  0
  5  6  1  0
  6  7  2  0
  6  8  1  0
  8  9  1  0
  9 10  2  0
 10 11  1  0
 11 12  2  0
 12 13  1  0
 12 14  1  0
 14 15  2  0
 15 16  1  0
 16 17  1  0
 17 18  1  0
 18 19  1  0
 18 20  1  0
 18 21  1  0
  5 22  1  0
 22 23  2  0
 23  2  1  0
 15  9  1  0
  1 24  1  0
  1 25  1  0
  3 26  1  0
  4 27  1  0
  8 28  1  0
 10 29  1  0
 11 30  1  0
 14 31  1  0
 17 32  1  0
 17 33  1  0
 22 34  1  0
M  END
>  <meeko>  (3) 
{"is_sidechain": [false], "free_energy": -7.575, "intermolecular_energy": -9.848, "internal_energy": -1.052}

$$$$
ligand_25_conformer_2_docked
     RDKit          3D

 34 35  0  0  0  0  0  0  0  0999 V2000
   10.0350   47.4200   53.9190 N   0  0  0  0  0  0  0  0  0  0  0  0
    8.6760   47.0390   53.6980 C   0  0  0  0  0  0  0  0  0  0  0  0
    8.2690   46.5560   52.4500 C   0  0  0  0  0  0  0  0  0  0  0  0
    6.9360   46.1900   52.2590 C   0  0  0  0  0  0  0  0  0  0  0  0
    6.0100   46.3120   53.3080 C   0  0  0  0  0  0  0  0  0  0  0  0
    4.5950   45.9170   53.1110 C   0  0  0  0  0  0  0  0  0  0  0  0
    3.7850   46.7380   52.6010 O   0  0  0  0  0  0  0  0  0  0  0  0
    4.1240   44.6230   53.5260 N   0  0  0  0  0  0  0  0  0  0  0  0
    2.8840   44.0630   53.0680 C   0  0  0  0  0  0  0  0  0  0  0  0
    1.7390   44.2060   53.8650 C   0  0  0  0  0  0  0  0  0  0  0  0
    0.5160   43.6750   53.4510 C   0  0  0  0  0  0  0  0  0  0  0  0
    0.4290   42.9830   52.2420 C   0  0  0  0  0  0  0  0  0  0  0  0
   -1.1100   42.3180   51.7240 Cl  0  0  0  0  0  0  0  0  0  0  0  0
    1.5690   42.8070   51.4510 C   0  0  0  0  0  0  0  0  0  0  0  0
    2.8110   43.3360   51.8590 C   0  0  0  0  0  0  0  0  0  0  0  0
    3.9920   43.1320   51.1220 O   0  0  0  0  0  0  0  0  0  0  0  0
    4.5540   41.8710   50.7570 C   0  0  0  0  0  0  0  0  0  0  0  0
    5.8220   42.0540   49.9240 C   0  0  0  0  0  0  0  0  0  0  0  0
    6.3400   43.3190   50.1330 F   0  0  0  0  0  0  0  0  0  0  0  0
    5.5520   41.8930   48.5780 F   0  0  0  0  0  0  0  0  0  0  0  0
    6.7630   41.1150   50.3060 F   0  0  0  0  0  0  0  0  0  0  0  0
    6.4690   46.7930   54.5470 C   0  0  0  0  0  0  0  0  0  0  0  0
    7.7730   47.1420   54.7090 N   0  0  0  0  0  0  0  0  0  0  0  0
   10.4920   48.1480   53.3260 H   0  0  0  0  0  0  0  0  0  0  0  0
   10.5890   46.9700   54.6820 H   0  0  0  0  0  0  0  0  0  0  0  0
    8.9929   46.4655   51.6268 H   0  0  0  0  0  0  0  0  0  0  0  0
    6.6089   45.8041   51.2822 H   0  0  0  0  0  0  0  0  0  0  0  0
    4.6020   44.1580   54.3300 H   0  0  0  0  0  0  0  0  0  0  0  0
    1.8050   44.7408   54.8240 H   0  0  0  0  0  0  0  0  0  0  0  0
   -0.3791   43.8020   54.0777 H   0  0  0  0  0  0  0  0  0  0  0  0
    1.4963   42.2521   50.5040 H   0  0  0  0  0  0  0  0  0  0  0  0
    4.8020   41.3104   51.6703 H   0  0  0  0  0  0  0  0  0  0  0  0
    3.8163   41.3212   50.1541 H   0  0  0  0  0  0  0  0  0  0  0  0
    5.7689   46.8875   55.3902 H   0  0  0  0  0  0  0  0  0  0  0  0
  1  2  1  0
  2  3  2  0
  3  4  1  0
  4  5  2  0
  5  6  1  0
  6  7  2  0
  6  8  1  0
  8  9  1  0
  9 10  2  0
 10 11  1  0
 11 12  2  0
 12 13  1  0
 12 14  1  0
 14 15  2  0
 15 16  1  0
 16 17  1  0
 17 18  1  0
 18 19  1  0
 18 20  1  0
 18 21  1  0
  5 22  1  0
 22 23  2  0
 23  2  1  0
 15  9  1  0
  1 24  1  0
  1 25  1  0
  3 26  1  0
  4 27  1  0
  8 28  1  0
 10 29  1  0
 11 30  1  0
 14 31  1  0
 17 32  1  0
 17 33  1  0
 22 34  1  0
M  END
>  <meeko>  (4) 
{"is_sidechain": [false], "free_energy": -7.528, "intermolecular_energy": -10.074, "internal_energy": -0.764}

$$$$
ligand_25_conformer_2_docked
     RDKit          3D

 34 35  0  0  0  0  0  0  0  0999 V2000
   -1.9070   42.8850   51.4510 N   0  0  0  0  0  0  0  0  0  0  0  0
   -0.6180   43.5010   51.4110 C   0  0  0  0  0  0  0  0  0  0  0  0
   -0.4280   44.7830   51.9350 C   0  0  0  0  0  0  0  0  0  0  0  0
    0.8400   45.3630   51.8830 C   0  0  0  0  0  0  0  0  0  0  0  0
    1.9140   44.6670   51.3040 C   0  0  0  0  0  0  0  0  0  0  0  0
    3.2650   45.2770   51.2550 C   0  0  0  0  0  0  0  0  0  0  0  0
    3.3980   46.4620   50.8440 O   0  0  0  0  0  0  0  0  0  0  0  0
    4.4290   44.5250   51.6370 N   0  0  0  0  0  0  0  0  0  0  0  0
    5.6920   45.1420   51.9320 C   0  0  0  0  0  0  0  0  0  0  0  0
    6.5060   45.5630   50.8710 C   0  0  0  0  0  0  0  0  0  0  0  0
    7.7390   46.1680   51.1200 C   0  0  0  0  0  0  0  0  0  0  0  0
    8.1780   46.3450   52.4340 C   0  0  0  0  0  0  0  0  0  0  0  0
    9.7280   47.1060   52.7430 Cl  0  0  0  0  0  0  0  0  0  0  0  0
    7.3890   45.9040   53.5010 C   0  0  0  0  0  0  0  0  0  0  0  0
    6.1430   45.2890   53.2630 C   0  0  0  0  0  0  0  0  0  0  0  0
    5.3460   44.7790   54.3040 O   0  0  0  0  0  0  0  0  0  0  0  0
    4.6950   45.5410   55.3220 C   0  0  0  0  0  0  0  0  0  0  0  0
    3.2050   45.7000   55.0220 C   0  0  0  0  0  0  0  0  0  0  0  0
    2.5290   46.0470   56.1780 F   0  0  0  0  0  0  0  0  0  0  0  0
    2.6760   44.5230   54.5250 F   0  0  0  0  0  0  0  0  0  0  0  0
    3.0290   46.7000   54.0830 F   0  0  0  0  0  0  0  0  0  0  0  0
    1.6760   43.3770   50.8000 C   0  0  0  0  0  0  0  0  0  0  0  0
    0.4320   42.8330   50.8630 N   0  0  0  0  0  0  0  0  0  0  0  0
   -2.7200   43.3080   50.9520 H   0  0  0  0  0  0  0  0  0  0  0  0
   -2.0480   41.9980   51.9850 H   0  0  0  0  0  0  0  0  0  0  0  0
   -1.2704   45.3295   52.3842 H   0  0  0  0  0  0  0  0  0  0  0  0
    0.9993   46.3695   52.2972 H   0  0  0  0  0  0  0  0  0  0  0  0
    4.4110   43.4880   51.5120 H   0  0  0  0  0  0  0  0  0  0  0  0
    6.1703   45.4153   49.8339 H   0  0  0  0  0  0  0  0  0  0  0  0
    8.3652   46.5055   50.2810 H   0  0  0  0  0  0  0  0  0  0  0  0
    7.7432   46.0380   54.5337 H   0  0  0  0  0  0  0  0  0  0  0  0
    4.8143   45.0270   56.2872 H   0  0  0  0  0  0  0  0  0  0  0  0
    5.1530   46.5405   55.3571 H   0  0  0  0  0  0  0  0  0  0  0  0
    2.5013   42.8042   50.3519 H   0  0  0  0  0  0  0  0  0  0  0  0
  1  2  1  0
  2  3  2  0
  3  4  1  0
  4  5  2  0
  5  6  1  0
  6  7  2  0
  6  8  1  0
  8  9  1  0
  9 10  2  0
 10 11  1  0
 11 12  2  0
 12 13  1  0
 12 14  1  0
 14 15  2  0
 15 16  1  0
 16 17  1  0
 17 18  1  0
 18 19  1  0
 18 20  1  0
 18 21  1  0
  5 22  1  0
 22 23  2  0
 23  2  1  0
 15  9  1  0
  1 24  1  0
  1 25  1  0
  3 26  1  0
  4 27  1  0
  8 28  1  0
 10 29  1  0
 11 30  1  0
 14 31  1  0
 17 32  1  0
 17 33  1  0
 22 34  1  0
M  END
>  <meeko>  (5) 
{"is_sidechain": [false], "free_energy": -7.407, "intermolecular_energy": -9.48, "internal_energy": -1.198}

$$$$
