MODEL 1
REMARK VINA RESULT:    -8.036      0.000      0.000
REMARK INTER + INTRA:         -10.589
REMARK INTER:                  -9.915
REMARK INTRA:                  -0.674
REMARK UNBOUND:                -0.674
REMARK SMILES O=C(c1c[nH]nc1-c1ccc(Cl)s1)N1CCN(CC2CC2)CC1
REMARK SMILES IDX 1 1 2 2 14 3 15 4 16 5 17 6 22 7 23 8 3 9 4 10 7 11 5 12
REMARK SMILES IDX 6 13 8 15 9 16 13 17 10 18 11 19 12 20 18 21 19 22 20 23
REMARK SMILES IDX 21 24
REMARK H PARENT 5 14
ROOT
ATOM      1  O   UNL     1       1.989  46.414  52.083  1.00  0.00    -0.269 OA
ATOM      2  C   UNL     1       2.651  45.453  52.560  1.00  0.00     0.257 C 
ATOM      3  N   UNL     1       4.066  45.608  52.797  1.00  0.00    -0.336 N 
ATOM      4  C   UNL     1       4.774  44.755  53.761  1.00  0.00     0.135 C 
ATOM      5  C   UNL     1       5.812  45.580  54.524  1.00  0.00     0.106 C 
ATOM      6  N   UNL     1       6.685  46.288  53.571  1.00  0.00    -0.300 NA
ATOM      7  C   UNL     1       5.908  47.237  52.751  1.00  0.00     0.106 C 
ATOM      8  C   UNL     1       4.869  46.476  51.924  1.00  0.00     0.135 C 
ENDROOT
BRANCH   2   9
ATOM      9  C   UNL     1       1.963  44.174  52.821  1.00  0.00     0.086 A 
ATOM     10  C   UNL     1       1.952  43.077  51.983  1.00  0.00     0.119 A 
ATOM     11  C   UNL     1       1.075  43.849  53.840  1.00  0.00     0.115 A 
ATOM     12  N   UNL     1       1.107  42.163  52.489  1.00  0.00    -0.284 N 
ATOM     13  N   UNL     1       0.572  42.619  53.610  1.00  0.00    -0.174 NA
ATOM     14  H   UNL     1       0.884  41.235  52.067  1.00  0.00     0.189 HD
BRANCH  11  15
ATOM     15  C   UNL     1       0.745  44.631  55.046  1.00  0.00     0.057 A 
ATOM     16  C   UNL     1      -0.532  44.768  55.583  1.00  0.00     0.024 A 
ATOM     17  S   UNL     1       1.841  45.397  56.074  1.00  0.00    -0.122 S 
ATOM     18  C   UNL     1      -0.560  45.504  56.774  1.00  0.00     0.033 A 
ATOM     19  C   UNL     1       0.696  45.930  57.181  1.00  0.00     0.094 A 
ATOM     20  Cl  UNL     1       1.044  46.855  58.625  1.00  0.00    -0.072 Cl
ENDBRANCH  11  15
ENDBRANCH   2   9
BRANCH   6  21
ATOM     21  C   UNL     1       7.847  46.927  54.225  1.00  0.00     0.088 C 
BRANCH  21  22
ATOM     22  C   UNL     1       8.860  47.531  53.229  1.00  0.00     0.003 C 
ATOM     23  C   UNL     1      10.263  46.950  53.347  1.00  0.00     0.005 C 
ATOM     24  C   UNL     1       9.393  46.593  52.154  1.00  0.00     0.005 C 
ENDBRANCH  21  22
ENDBRANCH   6  21
TORSDOF 4
ENDMDL
MODEL 2
REMARK VINA RESULT:    -7.968      3.439      4.563
REMARK INTER + INTRA:         -10.506
REMARK INTER:                 -10.164
REMARK INTRA:                  -0.342
REMARK UNBOUND:                -0.674
REMARK SMILES O=C(c1c[nH]nc1-c1ccc(Cl)s1)N1CCN(CC2CC2)CC1
REMARK SMILES IDX 1 1 2 2 14 3 15 4 16 5 17 6 22 7 23 8 3 9 4 10 7 11 5 12
REMARK SMILES IDX 6 13 8 15 9 16 13 17 10 18 11 19 12 20 18 21 19 22 20 23
REMARK SMILES IDX 21 24
REMARK H PARENT 5 14
ROOT
ATOM      1  O   UNL     1       3.041  44.527  54.790  1.00  0.00    -0.269 OA
ATOM      2  C   UNL     1       3.112  45.176  53.712  1.00  0.00     0.257 C 
ATOM      3  N   UNL     1       4.191  46.113  53.511  1.00  0.00    -0.336 N 
ATOM      4  C   UNL     1       4.606  46.518  52.162  1.00  0.00     0.135 C 
ATOM      5  C   UNL     1       6.129  46.648  52.101  1.00  0.00     0.106 C 
ATOM      6  N   UNL     1       6.597  47.535  53.183  1.00  0.00    -0.300 NA
ATOM      7  C   UNL     1       6.271  46.969  54.505  1.00  0.00     0.106 C 
ATOM      8  C   UNL     1       4.753  46.845  54.655  1.00  0.00     0.135 C 
ENDROOT
BRANCH   2   9
ATOM      9  C   UNL     1       2.057  44.988  52.697  1.00  0.00     0.086 A 
ATOM     10  C   UNL     1       0.849  45.655  52.656  1.00  0.00     0.119 A 
ATOM     11  C   UNL     1       1.967  44.031  51.693  1.00  0.00     0.115 A 
ATOM     12  N   UNL     1       0.098  45.117  51.680  1.00  0.00    -0.284 N 
ATOM     13  N   UNL     1       0.763  44.136  51.093  1.00  0.00    -0.174 NA
ATOM     14  H   UNL     1      -0.870  45.408  51.421  1.00  0.00     0.189 HD
BRANCH  11  15
ATOM     15  C   UNL     1       2.998  43.077  51.247  1.00  0.00     0.057 A 
ATOM     16  C   UNL     1       2.743  41.811  50.727  1.00  0.00     0.024 A 
ATOM     17  S   UNL     1       4.658  43.366  51.156  1.00  0.00    -0.122 S 
ATOM     18  C   UNL     1       3.898  41.136  50.312  1.00  0.00     0.033 A 
ATOM     19  C   UNL     1       5.056  41.877  50.489  1.00  0.00     0.094 A 
ATOM     20  Cl  UNL     1       6.675  41.362  50.070  1.00  0.00    -0.072 Cl
ENDBRANCH  11  15
ENDBRANCH   2   9
BRANCH   6  21
ATOM     21  C   UNL     1       8.028  47.886  53.055  1.00  0.00     0.088 C 
BRANCH  21  22
ATOM     22  C   UNL     1       8.981  46.729  53.422  1.00  0.00     0.003 C 
ATOM     23  C   UNL     1      10.289  46.735  52.643  1.00  0.00     0.005 C 
ATOM     24  C   UNL     1      10.281  47.115  54.114  1.00  0.00     0.005 C 
ENDBRANCH  21  22
ENDBRANCH   6  21
TORSDOF 4
ENDMDL
MODEL 3
REMARK VINA RESULT:    -7.647      2.971      4.104
REMARK INTER + INTRA:         -10.109
REMARK INTER:                  -9.497
REMARK INTRA:                  -0.612
REMARK UNBOUND:                -0.674
REMARK SMILES O=C(c1c[nH]nc1-c1ccc(Cl)s1)N1CCN(CC2CC2)CC1
REMARK SMILES IDX 1 1 2 2 14 3 15 4 16 5 17 6 22 7 23 8 3 9 4 10 7 11 5 12
REMARK SMILES IDX 6 13 8 15 9 16 13 17 10 18 11 19 12 20 18 21 19 22 20 23
REMARK SMILES IDX 21 24
REMARK H PARENT 5 14
ROOT
ATOM      1  O   UNL     1       2.097  47.124  52.324  1.00  0.00    -0.269 OA
ATOM      2  C   UNL     1       2.596  46.204  53.026  1.00  0.00     0.257 C 
ATOM      3  N   UNL     1       4.021  46.169  53.252  1.00  0.00    -0.336 N 
ATOM      4  C   UNL     1       4.592  45.459  54.404  1.00  0.00     0.135 C 
ATOM      5  C   UNL     1       5.768  46.253  54.975  1.00  0.00     0.106 C 
ATOM      6  N   UNL     1       6.731  46.559  53.901  1.00  0.00    -0.300 NA
ATOM      7  C   UNL     1       6.110  47.406  52.865  1.00  0.00     0.106 C 
ATOM      8  C   UNL     1       4.942  46.659  52.217  1.00  0.00     0.135 C 
ENDROOT
BRANCH   2   9
ATOM      9  C   UNL     1       1.706  45.158  53.565  1.00  0.00     0.086 A 
ATOM     10  C   UNL     1       0.771  45.330  54.566  1.00  0.00     0.119 A 
ATOM     11  C   UNL     1       1.712  43.789  53.319  1.00  0.00     0.115 A 
ATOM     12  N   UNL     1       0.260  44.129  54.884  1.00  0.00    -0.284 N 
ATOM     13  N   UNL     1       0.821  43.192  54.137  1.00  0.00    -0.174 NA
ATOM     14  H   UNL     1      -0.461  43.943  55.615  1.00  0.00     0.189 HD
BRANCH  11  15
ATOM     15  C   UNL     1       2.478  43.049  52.300  1.00  0.00     0.057 A 
ATOM     16  C   UNL     1       3.787  42.602  52.455  1.00  0.00     0.024 A 
ATOM     17  S   UNL     1       1.895  42.491  50.819  1.00  0.00    -0.122 S 
ATOM     18  C   UNL     1       4.255  41.861  51.363  1.00  0.00     0.033 A 
ATOM     19  C   UNL     1       3.310  41.711  50.359  1.00  0.00     0.094 A 
ATOM     20  Cl  UNL     1       3.537  40.836  48.862  1.00  0.00    -0.072 Cl
ENDBRANCH  11  15
ENDBRANCH   2   9
BRANCH   6  21
ATOM     21  C   UNL     1       7.996  47.129  54.413  1.00  0.00     0.088 C 
BRANCH  21  22
ATOM     22  C   UNL     1       8.987  47.527  53.298  1.00  0.00     0.003 C 
ATOM     23  C   UNL     1      10.373  46.917  53.457  1.00  0.00     0.005 C 
ATOM     24  C   UNL     1       9.443  46.412  52.367  1.00  0.00     0.005 C 
ENDBRANCH  21  22
ENDBRANCH   6  21
TORSDOF 4
ENDMDL
MODEL 4
REMARK VINA RESULT:    -7.111      1.777      2.209
REMARK INTER + INTRA:          -9.448
REMARK INTER:                  -9.051
REMARK INTRA:                  -0.397
REMARK UNBOUND:                -0.674
REMARK SMILES O=C(c1c[nH]nc1-c1ccc(Cl)s1)N1CCN(CC2CC2)CC1
REMARK SMILES IDX 1 1 2 2 14 3 15 4 16 5 17 6 22 7 23 8 3 9 4 10 7 11 5 12
REMARK SMILES IDX 6 13 8 15 9 16 13 17 10 18 11 19 12 20 18 21 19 22 20 23
REMARK SMILES IDX 21 24
REMARK H PARENT 5 14
ROOT
ATOM      1  O   UNL     1       3.562  42.294  52.932  1.00  0.00    -0.269 OA
ATOM      2  C   UNL     1       3.211  43.447  52.561  1.00  0.00     0.257 C 
ATOM      3  N   UNL     1       4.098  44.566  52.768  1.00  0.00    -0.336 N 
ATOM      4  C   UNL     1       3.984  45.787  51.961  1.00  0.00     0.135 C 
ATOM      5  C   UNL     1       5.376  46.332  51.637  1.00  0.00     0.106 C 
ATOM      6  N   UNL     1       6.152  46.485  52.881  1.00  0.00    -0.300 NA
ATOM      7  C   UNL     1       6.349  45.182  53.543  1.00  0.00     0.106 C 
ATOM      8  C   UNL     1       4.993  44.590  53.934  1.00  0.00     0.135 C 
ENDROOT
BRANCH   2   9
ATOM      9  C   UNL     1       1.874  43.625  51.961  1.00  0.00     0.086 A 
ATOM     10  C   UNL     1       1.544  43.388  50.642  1.00  0.00     0.119 A 
ATOM     11  C   UNL     1       0.735  44.198  52.514  1.00  0.00     0.115 A 
ATOM     12  N   UNL     1       0.281  43.799  50.439  1.00  0.00    -0.284 N 
ATOM     13  N   UNL     1      -0.217  44.289  51.562  1.00  0.00    -0.174 NA
ATOM     14  H   UNL     1      -0.239  43.757  49.535  1.00  0.00     0.189 HD
BRANCH  11  15
ATOM     15  C   UNL     1       0.501  44.595  53.914  1.00  0.00     0.057 A 
ATOM     16  C   UNL     1       1.478  45.073  54.782  1.00  0.00     0.024 A 
ATOM     17  S   UNL     1      -0.991  44.672  54.697  1.00  0.00    -0.122 S 
ATOM     18  C   UNL     1       0.977  45.448  56.035  1.00  0.00     0.033 A 
ATOM     19  C   UNL     1      -0.395  45.280  56.145  1.00  0.00     0.094 A 
ATOM     20  Cl  UNL     1      -1.362  45.658  57.553  1.00  0.00    -0.072 Cl
ENDBRANCH  11  15
ENDBRANCH   2   9
BRANCH   6  21
ATOM     21  C   UNL     1       7.424  47.212  52.675  1.00  0.00     0.088 C 
BRANCH  21  22
ATOM     22  C   UNL     1       8.675  46.365  52.991  1.00  0.00     0.003 C 
ATOM     23  C   UNL     1       9.889  46.714  52.140  1.00  0.00     0.005 C 
ATOM     24  C   UNL     1       9.855  47.103  53.608  1.00  0.00     0.005 C 
ENDBRANCH  21  22
ENDBRANCH   6  21
TORSDOF 4
ENDMDL
MODEL 5
REMARK VINA RESULT:    -7.099      3.130      7.478
REMARK INTER + INTRA:          -9.433
REMARK INTER:                  -9.746
REMARK INTRA:                   0.312
REMARK UNBOUND:                -0.674
REMARK SMILES O=C(c1c[nH]nc1-c1ccc(Cl)s1)N1CCN(CC2CC2)CC1
REMARK SMILES IDX 1 1 2 2 14 3 15 4 16 5 17 6 22 7 23 8 3 9 4 10 7 11 5 12
REMARK SMILES IDX 6 13 8 15 9 16 13 17 10 18 11 19 12 20 18 21 19 22 20 23
REMARK SMILES IDX 21 24
REMARK H PARENT 5 14
ROOT
ATOM      1  O   UNL     1       5.266  47.869  53.455  1.00  0.00    -0.269 OA
ATOM      2  C   UNL     1       4.948  46.705  53.090  1.00  0.00     0.257 C 
ATOM      3  N   UNL     1       4.007  45.942  53.874  1.00  0.00    -0.336 N 
ATOM      4  C   UNL     1       3.245  44.834  53.282  1.00  0.00     0.135 C 
ATOM      5  C   UNL     1       1.819  44.829  53.832  1.00  0.00     0.106 C 
ATOM      6  N   UNL     1       1.853  44.835  55.306  1.00  0.00    -0.300 NA
ATOM      7  C   UNL     1       2.499  46.061  55.812  1.00  0.00     0.106 C 
ATOM      8  C   UNL     1       3.951  46.116  55.332  1.00  0.00     0.135 C 
ENDROOT
BRANCH   2   9
ATOM      9  C   UNL     1       5.585  46.138  51.886  1.00  0.00     0.086 A 
ATOM     10  C   UNL     1       4.925  45.608  50.796  1.00  0.00     0.119 A 
ATOM     11  C   UNL     1       6.929  45.870  51.649  1.00  0.00     0.115 A 
ATOM     12  N   UNL     1       5.833  45.063  49.970  1.00  0.00    -0.284 N 
ATOM     13  N   UNL     1       7.046  45.216  50.475  1.00  0.00    -0.174 NA
ATOM     14  H   UNL     1       5.629  44.578  49.069  1.00  0.00     0.189 HD
BRANCH  11  15
ATOM     15  C   UNL     1       8.095  46.269  52.458  1.00  0.00     0.057 A 
ATOM     16  C   UNL     1       9.352  46.578  51.948  1.00  0.00     0.024 A 
ATOM     17  S   UNL     1       8.110  46.551  54.122  1.00  0.00    -0.122 S 
ATOM     18  C   UNL     1      10.263  46.998  52.926  1.00  0.00     0.033 A 
ATOM     19  C   UNL     1       9.717  47.034  54.200  1.00  0.00     0.094 A 
ATOM     20  Cl  UNL     1      10.552  47.522  55.658  1.00  0.00    -0.072 Cl
ENDBRANCH  11  15
ENDBRANCH   2   9
BRANCH   6  21
ATOM     21  C   UNL     1       0.522  44.608  55.910  1.00  0.00     0.088 C 
BRANCH  21  22
ATOM     22  C   UNL     1      -0.525  44.073  54.909  1.00  0.00     0.003 C 
ATOM     23  C   UNL     1      -1.878  43.764  55.536  1.00  0.00     0.005 C 
ATOM     24  C   UNL     1      -1.720  44.975  54.632  1.00  0.00     0.005 C 
ENDBRANCH  21  22
ENDBRANCH   6  21
TORSDOF 4
ENDMDL
