ligand_60_conformer_2_docked
     RDKit          3D

 44 47  0  0  0  0  0  0  0  0999 V2000
    1.5250   45.5850   53.9970 C   0  0  0  0  0  0  0  0  0  0  0  0
    2.7530   46.3500   53.4770 C   0  0  2  0  0  0  0  0  0  0  0  0
    2.6830   46.6040   51.9590 C   0  0  0  0  0  0  0  0  0  0  0  0
    2.9160   45.3270   51.1390 C   0  0  0  0  0  0  0  0  0  0  0  0
    4.2630   44.6440   51.4890 C   0  0  1  0  0  0  0  0  0  0  0  0
    4.3920   43.2970   50.7410 C   0  0  0  0  0  0  0  0  0  0  0  0
    5.8740   43.1340   50.4340 C   0  0  0  0  0  0  0  0  0  0  0  0
    6.4280   44.4750   50.4780 N   0  0  0  0  0  0  0  0  0  0  0  0
    7.7900   44.7600   50.1000 C   0  0  0  0  0  0  0  0  0  0  0  0
    8.1800   44.4670   48.9370 O   0  0  0  0  0  0  0  0  0  0  0  0
    8.7480   45.3910   51.0310 C   0  0  0  0  0  0  0  0  0  0  0  0
   10.1250   45.3730   50.9000 C   0  0  0  0  0  0  0  0  0  0  0  0
   10.6190   46.0810   51.9750 C   0  0  0  0  0  0  0  0  0  0  0  0
    9.5110   46.4880   52.6920 C   0  0  0  0  0  0  0  0  0  0  0  0
    9.5250   47.2740   53.9280 C   0  0  0  0  0  0  0  0  0  0  0  0
   10.3430   47.0300   54.9690 N   0  0  0  0  0  0  0  0  0  0  0  0
   10.0380   47.9550   55.8630 N   0  0  0  0  0  0  0  0  0  0  0  0
    9.0760   48.7230   55.3810 N   0  0  0  0  0  0  0  0  0  0  0  0
    8.7250   48.3310   54.1680 N   0  0  0  0  0  0  0  0  0  0  0  0
    8.4150   46.0650   52.1070 O   0  0  0  0  0  0  0  0  0  0  0  0
    5.4770   45.4550   50.9780 C   0  0  0  0  0  0  0  0  0  0  0  0
    4.3530   44.3940   53.0230 C   0  0  0  0  0  0  0  0  0  0  0  0
    4.0730   45.6550   53.8620 C   0  0  0  0  0  0  0  0  0  0  0  0
    1.5299   45.5880   55.0970 H   0  0  0  0  0  0  0  0  0  0  0  0
    0.6084   46.0721   53.6330 H   0  0  0  0  0  0  0  0  0  0  0  0
    1.5582   44.5475   53.6330 H   0  0  0  0  0  0  0  0  0  0  0  0
    2.7372   47.3311   53.9741 H   0  0  0  0  0  0  0  0  0  0  0  0
    1.6883   47.0045   51.7136 H   0  0  0  0  0  0  0  0  0  0  0  0
    3.4801   47.3171   51.7018 H   0  0  0  0  0  0  0  0  0  0  0  0
    2.0974   44.6210   51.3426 H   0  0  0  0  0  0  0  0  0  0  0  0
    2.9464   45.6090   50.0762 H   0  0  0  0  0  0  0  0  0  0  0  0
    4.0391   42.4709   51.3758 H   0  0  0  0  0  0  0  0  0  0  0  0
    3.7845   43.2830   49.8241 H   0  0  0  0  0  0  0  0  0  0  0  0
    6.3550   42.4942   51.1885 H   0  0  0  0  0  0  0  0  0  0  0  0
    6.0386   42.6559   49.4571 H   0  0  0  0  0  0  0  0  0  0  0  0
   10.7075   44.8916   50.1006 H   0  0  0  0  0  0  0  0  0  0  0  0
   11.6746   46.2800   52.2120 H   0  0  0  0  0  0  0  0  0  0  0  0
    8.6520   49.5310   55.8880 H   0  0  0  0  0  0  0  0  0  0  0  0
    5.9222   46.0360   51.7991 H   0  0  0  0  0  0  0  0  0  0  0  0
    5.1846   46.1704   50.1953 H   0  0  0  0  0  0  0  0  0  0  0  0
    3.6173   43.6229   53.2951 H   0  0  0  0  0  0  0  0  0  0  0  0
    5.3837   44.0783   53.2423 H   0  0  0  0  0  0  0  0  0  0  0  0
    4.0218   45.3669   54.9224 H   0  0  0  0  0  0  0  0  0  0  0  0
    4.8892   46.3671   53.6704 H   0  0  0  0  0  0  0  0  0  0  0  0
  1  2  1  0
  2  3  1  0
  3  4  1  0
  5  4  1  6
  5  6  1  0
  6  7  1  0
  7  8  1  0
  8  9  1  0
  9 10  2  0
  9 11  1  0
 11 12  2  0
 12 13  1  0
 13 14  2  0
 14 15  1  0
 15 16  1  0
 16 17  2  0
 17 18  1  0
 18 19  1  0
 14 20  1  0
  8 21  1  0
  5 22  1  0
 22 23  1  0
 23  2  1  0
 21  5  1  0
 20 11  1  0
 19 15  2  0
  1 24  1  0
  1 25  1  0
  1 26  1  0
  2 27  1  6
  3 28  1  0
  3 29  1  0
  4 30  1  0
  4 31  1  0
  6 32  1  0
  6 33  1  0
  7 34  1  0
  7 35  1  0
 12 36  1  0
 13 37  1  0
 18 38  1  0
 21 39  1  0
 21 40  1  0
 22 41  1  0
 22 42  1  0
 23 43  1  0
 23 44  1  0
M  END
>  <meeko>  (1) 
{"is_sidechain": [false], "free_energy": -9.084, "intermolecular_energy": -10.677, "internal_energy": -0.409}

$$$$
ligand_60_conformer_2_docked
     RDKit          3D

 44 47  0  0  0  0  0  0  0  0999 V2000
   10.3020   46.3250   52.1020 C   0  0  0  0  0  0  0  0  0  0  0  0
    9.1090   47.2790   51.9310 C   0  0  2  0  0  0  0  0  0  0  0  0
    8.5600   47.7750   53.2820 C   0  0  0  0  0  0  0  0  0  0  0  0
    7.8000   46.6800   54.0450 C   0  0  0  0  0  0  0  0  0  0  0  0
    6.6430   46.0790   53.2060 C   0  0  1  0  0  0  0  0  0  0  0  0
    5.9940   44.8950   53.9580 C   0  0  0  0  0  0  0  0  0  0  0  0
    4.5190   44.9260   53.5850 C   0  0  0  0  0  0  0  0  0  0  0  0
    4.2570   46.2860   53.1530 N   0  0  0  0  0  0  0  0  0  0  0  0
    2.9290   46.7570   52.8490 C   0  0  0  0  0  0  0  0  0  0  0  0
    2.7760   47.9310   52.4160 O   0  0  0  0  0  0  0  0  0  0  0  0
    1.7340   45.9050   53.0230 C   0  0  0  0  0  0  0  0  0  0  0  0
    1.0560   45.2560   52.0050 C   0  0  0  0  0  0  0  0  0  0  0  0
    0.0210   44.5770   52.6120 C   0  0  0  0  0  0  0  0  0  0  0  0
    0.1340   44.8540   53.9600 C   0  0  0  0  0  0  0  0  0  0  0  0
   -0.7470   44.3560   55.0190 C   0  0  0  0  0  0  0  0  0  0  0  0
   -1.6710   43.3930   54.8410 N   0  0  0  0  0  0  0  0  0  0  0  0
   -2.2370   43.2450   56.0280 N   0  0  0  0  0  0  0  0  0  0  0  0
   -1.6770   44.0840   56.8830 N   0  0  0  0  0  0  0  0  0  0  0  0
   -0.7370   44.8000   56.2910 N   0  0  0  0  0  0  0  0  0  0  0  0
    1.1610   45.6430   54.1740 O   0  0  0  0  0  0  0  0  0  0  0  0
    5.4730   47.0750   53.0290 C   0  0  0  0  0  0  0  0  0  0  0  0
    7.1810   45.5860   51.8310 C   0  0  0  0  0  0  0  0  0  0  0  0
    7.9890   46.6560   51.0750 C   0  0  0  0  0  0  0  0  0  0  0  0
   10.4965   46.1695   53.1734 H   0  0  0  0  0  0  0  0  0  0  0  0
   10.0707   45.3599   51.6275 H   0  0  0  0  0  0  0  0  0  0  0  0
   11.1926   46.7628   51.6275 H   0  0  0  0  0  0  0  0  0  0  0  0
    9.4924   48.1569   51.3903 H   0  0  0  0  0  0  0  0  0  0  0  0
    9.4025   48.1167   53.9012 H   0  0  0  0  0  0  0  0  0  0  0  0
    7.8525   48.5917   53.0760 H   0  0  0  0  0  0  0  0  0  0  0  0
    8.5038   45.8758   54.3056 H   0  0  0  0  0  0  0  0  0  0  0  0
    7.3633   47.1362   54.9456 H   0  0  0  0  0  0  0  0  0  0  0  0
    6.4492   43.9447   53.6421 H   0  0  0  0  0  0  0  0  0  0  0  0
    6.1386   44.9776   55.0453 H   0  0  0  0  0  0  0  0  0  0  0  0
    4.3138   44.2172   52.7692 H   0  0  0  0  0  0  0  0  0  0  0  0
    3.8780   44.6357   54.4305 H   0  0  0  0  0  0  0  0  0  0  0  0
    1.2944   45.2777   50.9314 H   0  0  0  0  0  0  0  0  0  0  0  0
   -0.7367   43.9462   52.1242 H   0  0  0  0  0  0  0  0  0  0  0  0
   -1.9410   44.1690   57.8890 H   0  0  0  0  0  0  0  0  0  0  0  0
    5.5215   47.5504   52.0382 H   0  0  0  0  0  0  0  0  0  0  0  0
    5.5107   47.8802   53.7775 H   0  0  0  0  0  0  0  0  0  0  0  0
    7.8299   44.7144   52.0020 H   0  0  0  0  0  0  0  0  0  0  0  0
    6.3082   45.3370   51.2096 H   0  0  0  0  0  0  0  0  0  0  0  0
    8.4432   46.1908   50.1877 H   0  0  0  0  0  0  0  0  0  0  0  0
    7.2934   47.4638   50.8035 H   0  0  0  0  0  0  0  0  0  0  0  0
  1  2  1  0
  2  3  1  0
  3  4  1  0
  5  4  1  6
  5  6  1  0
  6  7  1  0
  7  8  1  0
  8  9  1  0
  9 10  2  0
  9 11  1  0
 11 12  2  0
 12 13  1  0
 13 14  2  0
 14 15  1  0
 15 16  1  0
 16 17  2  0
 17 18  1  0
 18 19  1  0
 14 20  1  0
  8 21  1  0
  5 22  1  0
 22 23  1  0
 23  2  1  0
 21  5  1  0
 20 11  1  0
 19 15  2  0
  1 24  1  0
  1 25  1  0
  1 26  1  0
  2 27  1  1
  3 28  1  0
  3 29  1  0
  4 30  1  0
  4 31  1  0
  6 32  1  0
  6 33  1  0
  7 34  1  0
  7 35  1  0
 12 36  1  0
 13 37  1  0
 18 38  1  0
 21 39  1  0
 21 40  1  0
 22 41  1  0
 22 42  1  0
 23 43  1  0
 23 44  1  0
M  END
>  <meeko>  (2) 
{"is_sidechain": [false], "free_energy": -9.074, "intermolecular_energy": -10.653, "internal_energy": -0.421}

$$$$
ligand_60_conformer_2_docked
     RDKit          3D

 44 47  0  0  0  0  0  0  0  0999 V2000
   -1.0190   43.9080   54.0440 C   0  0  0  0  0  0  0  0  0  0  0  0
    0.4230   43.3990   54.2030 C   0  0  2  0  0  0  0  0  0  0  0  0
    1.2980   44.3720   55.0160 C   0  0  0  0  0  0  0  0  0  0  0  0
    1.6490   45.6430   54.2290 C   0  0  0  0  0  0  0  0  0  0  0  0
    2.3450   45.3230   52.8810 C   0  0  1  0  0  0  0  0  0  0  0  0
    2.5570   46.6200   52.0670 C   0  0  0  0  0  0  0  0  0  0  0  0
    3.8570   46.4200   51.3010 C   0  0  0  0  0  0  0  0  0  0  0  0
    4.5830   45.3980   52.0310 N   0  0  0  0  0  0  0  0  0  0  0  0
    5.9350   45.0250   51.6980 C   0  0  0  0  0  0  0  0  0  0  0  0
    6.1410   43.9490   51.0740 O   0  0  0  0  0  0  0  0  0  0  0  0
    7.0940   45.8680   52.0590 C   0  0  0  0  0  0  0  0  0  0  0  0
    7.9360   46.5010   51.1620 C   0  0  0  0  0  0  0  0  0  0  0  0
    8.8650   47.1760   51.9250 C   0  0  0  0  0  0  0  0  0  0  0  0
    8.5300   46.9120   53.2390 C   0  0  0  0  0  0  0  0  0  0  0  0
    9.2300   47.4110   54.4240 C   0  0  0  0  0  0  0  0  0  0  0  0
   10.2940   46.8030   54.9840 N   0  0  0  0  0  0  0  0  0  0  0  0
   10.6170   47.5670   56.0140 N   0  0  0  0  0  0  0  0  0  0  0  0
    9.7820   48.5900   56.0720 N   0  0  0  0  0  0  0  0  0  0  0  0
    8.8960   48.5310   55.0930 N   0  0  0  0  0  0  0  0  0  0  0  0
    7.4740   46.1340   53.2870 O   0  0  0  0  0  0  0  0  0  0  0  0
    3.7820   44.7860   53.0800 C   0  0  0  0  0  0  0  0  0  0  0  0
    1.4760   44.3300   52.0550 C   0  0  0  0  0  0  0  0  0  0  0  0
    1.0740   43.0720   52.8450 C   0  0  0  0  0  0  0  0  0  0  0  0
   -1.4640   44.0651   55.0376 H   0  0  0  0  0  0  0  0  0  0  0  0
   -1.0134   44.8585   53.4903 H   0  0  0  0  0  0  0  0  0  0  0  0
   -1.6113   43.1646   53.4903 H   0  0  0  0  0  0  0  0  0  0  0  0
    0.3574   42.4611   54.7740 H   0  0  0  0  0  0  0  0  0  0  0  0
    0.7528   44.6601   55.9269 H   0  0  0  0  0  0  0  0  0  0  0  0
    2.2394   43.8557   55.2552 H   0  0  0  0  0  0  0  0  0  0  0  0
    0.7231   46.2011   54.0260 H   0  0  0  0  0  0  0  0  0  0  0  0
    2.3478   46.2353   54.8379 H   0  0  0  0  0  0  0  0  0  0  0  0
    1.7210   46.7754   51.3691 H   0  0  0  0  0  0  0  0  0  0  0  0
    2.6029   47.5047   52.7191 H   0  0  0  0  0  0  0  0  0  0  0  0
    3.6504   46.0853   50.2737 H   0  0  0  0  0  0  0  0  0  0  0  0
    4.4332   47.3538   51.2238 H   0  0  0  0  0  0  0  0  0  0  0  0
    7.8764   46.4717   50.0640 H   0  0  0  0  0  0  0  0  0  0  0  0
    9.6989   47.7954   51.5631 H   0  0  0  0  0  0  0  0  0  0  0  0
    9.8180   49.3440   56.7940 H   0  0  0  0  0  0  0  0  0  0  0  0
    3.7981   43.6903   52.9842 H   0  0  0  0  0  0  0  0  0  0  0  0
    4.1703   45.0297   54.0799 H   0  0  0  0  0  0  0  0  0  0  0  0
    0.5604   44.8493   51.7355 H   0  0  0  0  0  0  0  0  0  0  0  0
    2.0834   43.9981   51.2001 H   0  0  0  0  0  0  0  0  0  0  0  0
    0.3581   42.4933   52.2429 H   0  0  0  0  0  0  0  0  0  0  0  0
    1.9928   42.5022   53.0481 H   0  0  0  0  0  0  0  0  0  0  0  0
  1  2  1  0
  2  3  1  0
  3  4  1  0
  5  4  1  6
  5  6  1  0
  6  7  1  0
  7  8  1  0
  8  9  1  0
  9 10  2  0
  9 11  1  0
 11 12  2  0
 12 13  1  0
 13 14  2  0
 14 15  1  0
 15 16  1  0
 16 17  2  0
 17 18  1  0
 18 19  1  0
 14 20  1  0
  8 21  1  0
  5 22  1  0
 22 23  1  0
 23  2  1  0
 21  5  1  0
 20 11  1  0
 19 15  2  0
  1 24  1  0
  1 25  1  0
  1 26  1  0
  2 27  1  6
  3 28  1  0
  3 29  1  0
  4 30  1  0
  4 31  1  0
  6 32  1  0
  6 33  1  0
  7 34  1  0
  7 35  1  0
 12 36  1  0
 13 37  1  0
 18 38  1  0
 21 39  1  0
 21 40  1  0
 22 41  1  0
 22 42  1  0
 23 43  1  0
 23 44  1  0
M  END
>  <meeko>  (3) 
{"is_sidechain": [false], "free_energy": -8.807, "intermolecular_energy": -10.326, "internal_energy": -0.434}

$$$$
ligand_60_conformer_2_docked
     RDKit          3D

 44 47  0  0  0  0  0  0  0  0999 V2000
    8.0040   47.3500   51.7290 C   0  0  0  0  0  0  0  0  0  0  0  0
    7.4360   46.0630   52.3500 C   0  0  2  0  0  0  0  0  0  0  0  0
    6.7660   45.1560   51.3010 C   0  0  0  0  0  0  0  0  0  0  0  0
    5.4240   45.7170   50.8100 C   0  0  0  0  0  0  0  0  0  0  0  0
    4.4360   45.9770   51.9760 C   0  0  1  0  0  0  0  0  0  0  0  0
    3.1560   46.6650   51.4500 C   0  0  0  0  0  0  0  0  0  0  0  0
    2.0200   46.1450   52.3200 C   0  0  0  0  0  0  0  0  0  0  0  0
    2.4990   44.8920   52.8740 N   0  0  0  0  0  0  0  0  0  0  0  0
    1.6540   44.0160   53.6460 C   0  0  0  0  0  0  0  0  0  0  0  0
    1.6040   42.7910   53.3520 O   0  0  0  0  0  0  0  0  0  0  0  0
    0.8430   44.5060   54.7810 C   0  0  0  0  0  0  0  0  0  0  0  0
   -0.4960   44.2270   54.9890 C   0  0  0  0  0  0  0  0  0  0  0  0
   -0.8410   44.8750   56.1570 C   0  0  0  0  0  0  0  0  0  0  0  0
    0.3100   45.5060   56.5860 C   0  0  0  0  0  0  0  0  0  0  0  0
    0.4440   46.3280   57.7910 C   0  0  0  0  0  0  0  0  0  0  0  0
   -0.5610   47.0430   58.3330 N   0  0  0  0  0  0  0  0  0  0  0  0
   -0.0250   47.6280   59.3910 N   0  0  0  0  0  0  0  0  0  0  0  0
    1.2470   47.2810   59.4820 N   0  0  0  0  0  0  0  0  0  0  0  0
    1.5820   46.4650   58.4970 N   0  0  0  0  0  0  0  0  0  0  0  0
    1.2930   45.2680   55.7500 O   0  0  0  0  0  0  0  0  0  0  0  0
    3.9080   44.6620   52.5960 C   0  0  0  0  0  0  0  0  0  0  0  0
    5.1060   46.8830   53.0510 C   0  0  0  0  0  0  0  0  0  0  0  0
    6.4760   46.3600   53.5190 C   0  0  0  0  0  0  0  0  0  0  0  0
    8.3085   48.0400   52.5297 H   0  0  0  0  0  0  0  0  0  0  0  0
    8.8766   47.1027   51.1065 H   0  0  0  0  0  0  0  0  0  0  0  0
    7.2332   47.8279   51.1065 H   0  0  0  0  0  0  0  0  0  0  0  0
    8.2963   45.5123   52.7582 H   0  0  0  0  0  0  0  0  0  0  0  0
    7.4422   45.0540   50.4394 H   0  0  0  0  0  0  0  0  0  0  0  0
    6.5680   44.1843   51.7769 H   0  0  0  0  0  0  0  0  0  0  0  0
    5.6078   46.6651   50.2834 H   0  0  0  0  0  0  0  0  0  0  0  0
    4.9696   44.9699   50.1427 H   0  0  0  0  0  0  0  0  0  0  0  0
    3.2417   47.7576   51.5443 H   0  0  0  0  0  0  0  0  0  0  0  0
    2.9853   46.4447   50.3859 H   0  0  0  0  0  0  0  0  0  0  0  0
    1.7939   46.8598   53.1249 H   0  0  0  0  0  0  0  0  0  0  0  0
    1.0934   46.0087   51.7431 H   0  0  0  0  0  0  0  0  0  0  0  0
   -1.1515   43.6139   54.3531 H   0  0  0  0  0  0  0  0  0  0  0  0
   -1.8269   44.8866   56.6447 H   0  0  0  0  0  0  0  0  0  0  0  0
    1.8980   47.6060   60.2300 H   0  0  0  0  0  0  0  0  0  0  0  0
    4.4493   44.4326   53.5257 H   0  0  0  0  0  0  0  0  0  0  0  0
    4.0524   43.8082   51.9176 H   0  0  0  0  0  0  0  0  0  0  0  0
    5.2427   47.8879   52.6249 H   0  0  0  0  0  0  0  0  0  0  0  0
    4.4432   46.8921   53.9288 H   0  0  0  0  0  0  0  0  0  0  0  0
    6.9379   47.1181   54.1685 H   0  0  0  0  0  0  0  0  0  0  0  0
    6.3033   45.4139   54.0529 H   0  0  0  0  0  0  0  0  0  0  0  0
  1  2  1  0
  2  3  1  0
  3  4  1  0
  5  4  1  1
  5  6  1  0
  6  7  1  0
  7  8  1  0
  8  9  1  0
  9 10  2  0
  9 11  1  0
 11 12  2  0
 12 13  1  0
 13 14  2  0
 14 15  1  0
 15 16  1  0
 16 17  2  0
 17 18  1  0
 18 19  1  0
 14 20  1  0
  8 21  1  0
  5 22  1  0
 22 23  1  0
 23  2  1  0
 21  5  1  0
 20 11  1  0
 19 15  2  0
  1 24  1  0
  1 25  1  0
  1 26  1  0
  2 27  1  6
  3 28  1  0
  3 29  1  0
  4 30  1  0
  4 31  1  0
  6 32  1  0
  6 33  1  0
  7 34  1  0
  7 35  1  0
 12 36  1  0
 13 37  1  0
 18 38  1  0
 21 39  1  0
 21 40  1  0
 22 41  1  0
 22 42  1  0
 23 43  1  0
 23 44  1  0
M  END
>  <meeko>  (4) 
{"is_sidechain": [false], "free_energy": -8.798, "intermolecular_energy": -10.275, "internal_energy": -0.475}

$$$$
ligand_60_conformer_2_docked
     RDKit          3D

 44 47  0  0  0  0  0  0  0  0999 V2000
   10.3190   46.3400   52.0090 C   0  0  0  0  0  0  0  0  0  0  0  0
    9.0890   47.2420   51.8100 C   0  0  2  0  0  0  0  0  0  0  0  0
    8.5870   47.8440   53.1350 C   0  0  0  0  0  0  0  0  0  0  0  0
    7.8950   46.8040   54.0280 C   0  0  0  0  0  0  0  0  0  0  0  0
    6.7210   46.0980   53.3020 C   0  0  1  0  0  0  0  0  0  0  0  0
    6.1440   44.9700   54.1870 C   0  0  0  0  0  0  0  0  0  0  0  0
    4.6530   44.9270   53.8830 C   0  0  0  0  0  0  0  0  0  0  0  0
    4.3300   46.2350   53.3440 N   0  0  0  0  0  0  0  0  0  0  0  0
    2.9760   46.6400   53.0610 C   0  0  0  0  0  0  0  0  0  0  0  0
    2.7670   47.7700   52.5430 O   0  0  0  0  0  0  0  0  0  0  0  0
    1.8180   45.7690   53.3530 C   0  0  0  0  0  0  0  0  0  0  0  0
    1.2800   45.5440   54.6080 C   0  0  0  0  0  0  0  0  0  0  0  0
    0.2210   44.6820   54.4180 C   0  0  0  0  0  0  0  0  0  0  0  0
    0.1790   44.4380   53.0590 C   0  0  0  0  0  0  0  0  0  0  0  0
   -0.7800   43.5740   52.3670 C   0  0  0  0  0  0  0  0  0  0  0  0
   -1.4900   42.6000   52.9700 N   0  0  0  0  0  0  0  0  0  0  0  0
   -2.2240   42.0720   52.0050 N   0  0  0  0  0  0  0  0  0  0  0  0
   -1.9660   42.7000   50.8700 N   0  0  0  0  0  0  0  0  0  0  0  0
   -1.0650   43.6500   51.0540 N   0  0  0  0  0  0  0  0  0  0  0  0
    1.1390   45.0980   52.4530 O   0  0  0  0  0  0  0  0  0  0  0  0
    5.5140   47.0420   53.0910 C   0  0  0  0  0  0  0  0  0  0  0  0
    7.2130   45.4960   51.9530 C   0  0  0  0  0  0  0  0  0  0  0  0
    7.9530   46.5140   51.0660 C   0  0  0  0  0  0  0  0  0  0  0  0
   10.5040   46.2043   53.0848 H   0  0  0  0  0  0  0  0  0  0  0  0
   10.1352   45.3610   51.5422 H   0  0  0  0  0  0  0  0  0  0  0  0
   11.1974   46.8096   51.5422 H   0  0  0  0  0  0  0  0  0  0  0  0
    9.4190   48.0777   51.1754 H   0  0  0  0  0  0  0  0  0  0  0  0
    9.4459   48.2619   53.6805 H   0  0  0  0  0  0  0  0  0  0  0  0
    7.8470   48.6203   52.8905 H   0  0  0  0  0  0  0  0  0  0  0  0
    8.6339   46.0460   54.3271 H   0  0  0  0  0  0  0  0  0  0  0  0
    7.4844   47.3294   54.9028 H   0  0  0  0  0  0  0  0  0  0  0  0
    6.6141   44.0077   53.9361 H   0  0  0  0  0  0  0  0  0  0  0  0
    6.3347   45.1548   55.2545 H   0  0  0  0  0  0  0  0  0  0  0  0
    4.4336   44.1419   53.1445 H   0  0  0  0  0  0  0  0  0  0  0  0
    4.0597   44.6972   54.7804 H   0  0  0  0  0  0  0  0  0  0  0  0
    1.6266   45.9667   55.5625 H   0  0  0  0  0  0  0  0  0  0  0  0
   -0.4503   44.2738   55.1878 H   0  0  0  0  0  0  0  0  0  0  0  0
   -2.4130   42.4770   49.9540 H   0  0  0  0  0  0  0  0  0  0  0  0
    5.5031   47.4252   52.0599 H   0  0  0  0  0  0  0  0  0  0  0  0
    5.5602   47.9137   53.7603 H   0  0  0  0  0  0  0  0  0  0  0  0
    7.8958   44.6617   52.1713 H   0  0  0  0  0  0  0  0  0  0  0  0
    6.3217   45.1676   51.3983 H   0  0  0  0  0  0  0  0  0  0  0  0
    8.3821   45.9821   50.2040 H   0  0  0  0  0  0  0  0  0  0  0  0
    7.2215   47.2742   50.7546 H   0  0  0  0  0  0  0  0  0  0  0  0
  1  2  1  0
  2  3  1  0
  3  4  1  0
  5  4  1  6
  5  6  1  0
  6  7  1  0
  7  8  1  0
  8  9  1  0
  9 10  2  0
  9 11  1  0
 11 12  2  0
 12 13  1  0
 13 14  2  0
 14 15  1  0
 15 16  1  0
 16 17  2  0
 17 18  1  0
 18 19  1  0
 14 20  1  0
  8 21  1  0
  5 22  1  0
 22 23  1  0
 23  2  1  0
 21  5  1  0
 20 11  1  0
 19 15  2  0
  1 24  1  0
  1 25  1  0
  1 26  1  0
  2 27  1  1
  3 28  1  0
  3 29  1  0
  4 30  1  0
  4 31  1  0
  6 32  1  0
  6 33  1  0
  7 34  1  0
  7 35  1  0
 12 36  1  0
 13 37  1  0
 18 38  1  0
 21 39  1  0
 21 40  1  0
 22 41  1  0
 22 42  1  0
 23 43  1  0
 23 44  1  0
M  END
>  <meeko>  (5) 
{"is_sidechain": [false], "free_energy": -8.758, "intermolecular_energy": -10.348, "internal_energy": -0.355}

$$$$
