MODEL 1
REMARK VINA RESULT:    -9.406      0.000      0.000
REMARK INTER + INTRA:         -10.945
REMARK INTER:                 -10.506
REMARK INTRA:                  -0.438
REMARK UNBOUND:                -0.438
REMARK SMILES O=C1N[C@@]2(CCc3ccccc32)C(=O)N1Cc1ncc(Cl)cc1Cl
REMARK SMILES IDX 16 1 15 2 1 3 2 4 3 5 4 6 13 7 5 8 12 9 14 10 6 11 11 12
REMARK SMILES IDX 7 13 10 14 8 15 9 16 17 18 18 19 23 20 19 21 22 22 20 23
REMARK SMILES IDX 24 24 21 25
REMARK H PARENT 3 17
ROOT
ATOM      1  C   UNL     1       5.746  47.629  53.254  1.00  0.00     0.188 C 
ENDROOT
BRANCH   1   2
ATOM      2  N   UNL     1       4.886  46.825  54.122  1.00  0.00    -0.256 N 
ATOM      3  O   UNL     1       6.515  45.643  55.361  1.00  0.00    -0.248 OA
ATOM      4  C   UNL     1       5.333  45.750  54.938  1.00  0.00     0.325 C 
ATOM      5  N   UNL     1       4.326  44.782  55.198  1.00  0.00    -0.319 N 
ATOM      6  C   UNL     1       3.125  45.185  54.470  1.00  0.00     0.147 C 
ATOM      7  C   UNL     1       3.529  46.491  53.844  1.00  0.00     0.261 C 
ATOM      8  C   UNL     1       1.889  45.287  55.395  1.00  0.00     0.048 C 
ATOM      9  C   UNL     1       2.751  44.173  53.449  1.00  0.00    -0.010 A 
ATOM     10  O   UNL     1       2.774  47.202  53.130  1.00  0.00    -0.271 OA
ATOM     11  C   UNL     1       0.820  44.334  54.821  1.00  0.00     0.039 C 
ATOM     12  C   UNL     1       3.534  43.709  52.386  1.00  0.00     0.007 A 
ATOM     13  C   UNL     1       1.476  43.706  53.647  1.00  0.00    -0.042 A 
ATOM     14  C   UNL     1       2.992  42.751  51.516  1.00  0.00     0.000 A 
ATOM     15  C   UNL     1       0.917  42.752  52.792  1.00  0.00     0.004 A 
ATOM     16  C   UNL     1       1.684  42.274  51.719  1.00  0.00     0.000 A 
ATOM     17  H   UNL     1       4.457  43.892  55.730  1.00  0.00     0.166 HD
ENDBRANCH   1   2
BRANCH   1  18
ATOM     18  C   UNL     1       6.470  46.738  52.279  1.00  0.00     0.079 A 
ATOM     19  N   UNL     1       5.725  46.004  51.406  1.00  0.00    -0.256 NA
ATOM     20  C   UNL     1       7.878  46.702  52.184  1.00  0.00     0.065 A 
ATOM     21  C   UNL     1       6.288  45.226  50.446  1.00  0.00     0.132 A 
ATOM     22  C   UNL     1       8.471  45.907  51.197  1.00  0.00     0.044 A 
ATOM     23  C   UNL     1       7.677  45.166  50.322  1.00  0.00     0.060 A 
ATOM     24  Cl  UNL     1       8.927  47.610  53.266  1.00  0.00    -0.082 Cl
ATOM     25  Cl  UNL     1       8.414  44.174  49.078  1.00  0.00    -0.083 Cl
ENDBRANCH   1  18
TORSDOF 2
ENDMDL
MODEL 2
REMARK VINA RESULT:    -9.359      3.533      6.923
REMARK INTER + INTRA:         -10.891
REMARK INTER:                 -10.425
REMARK INTRA:                  -0.466
REMARK UNBOUND:                -0.438
REMARK SMILES O=C1N[C@@]2(CCc3ccccc32)C(=O)N1Cc1ncc(Cl)cc1Cl
REMARK SMILES IDX 16 1 15 2 1 3 2 4 3 5 4 6 13 7 5 8 12 9 14 10 6 11 11 12
REMARK SMILES IDX 7 13 10 14 8 15 9 16 17 18 18 19 23 20 19 21 22 22 20 23
REMARK SMILES IDX 24 24 21 25
REMARK H PARENT 3 17
ROOT
ATOM      1  C   UNL     1       2.386  43.365  53.078  1.00  0.00     0.188 C 
ENDROOT
BRANCH   1   2
ATOM      2  N   UNL     1       3.144  44.520  52.597  1.00  0.00    -0.256 N 
ATOM      3  O   UNL     1       1.634  45.386  50.998  1.00  0.00    -0.248 OA
ATOM      4  C   UNL     1       2.805  45.295  51.455  1.00  0.00     0.325 C 
ATOM      5  N   UNL     1       3.924  45.929  50.850  1.00  0.00    -0.319 N 
ATOM      6  C   UNL     1       5.117  45.520  51.588  1.00  0.00     0.147 C 
ATOM      7  C   UNL     1       4.558  44.666  52.692  1.00  0.00     0.261 C 
ATOM      8  C   UNL     1       5.939  46.733  52.087  1.00  0.00     0.048 C 
ATOM      9  C   UNL     1       6.052  44.761  50.718  1.00  0.00    -0.010 A 
ATOM     10  O   UNL     1       5.252  44.113  53.586  1.00  0.00    -0.271 OA
ATOM     11  C   UNL     1       7.357  46.586  51.497  1.00  0.00     0.039 C 
ATOM     12  C   UNL     1       5.788  43.582  50.012  1.00  0.00     0.007 A 
ATOM     13  C   UNL     1       7.289  45.354  50.672  1.00  0.00    -0.042 A 
ATOM     14  C   UNL     1       6.816  43.008  49.250  1.00  0.00     0.000 A 
ATOM     15  C   UNL     1       8.326  44.798  49.918  1.00  0.00     0.004 A 
ATOM     16  C   UNL     1       8.084  43.615  49.203  1.00  0.00     0.000 A 
ATOM     17  H   UNL     1       3.903  46.500  49.976  1.00  0.00     0.166 HD
ENDBRANCH   1   2
BRANCH   1  18
ATOM     18  C   UNL     1       1.337  43.812  54.061  1.00  0.00     0.079 A 
ATOM     19  N   UNL     1       1.711  44.667  55.055  1.00  0.00    -0.256 NA
ATOM     20  C   UNL     1      -0.022  43.447  53.942  1.00  0.00     0.065 A 
ATOM     21  C   UNL     1       0.823  45.178  55.946  1.00  0.00     0.132 A 
ATOM     22  C   UNL     1      -0.948  43.970  54.851  1.00  0.00     0.044 A 
ATOM     23  C   UNL     1      -0.528  44.840  55.858  1.00  0.00     0.060 A 
ATOM     24  Cl  UNL     1      -0.604  42.348  52.697  1.00  0.00    -0.082 Cl
ATOM     25  Cl  UNL     1      -1.685  45.505  56.996  1.00  0.00    -0.083 Cl
ENDBRANCH   1  18
TORSDOF 2
ENDMDL
MODEL 3
REMARK VINA RESULT:    -9.227      3.018      5.911
REMARK INTER + INTRA:         -10.745
REMARK INTER:                 -10.666
REMARK INTRA:                  -0.078
REMARK UNBOUND:                -0.438
REMARK SMILES O=C1N[C@@]2(CCc3ccccc32)C(=O)N1Cc1ncc(Cl)cc1Cl
REMARK SMILES IDX 16 1 15 2 1 3 2 4 3 5 4 6 13 7 5 8 12 9 14 10 6 11 11 12
REMARK SMILES IDX 7 13 10 14 8 15 9 16 17 18 18 19 23 20 19 21 22 22 20 23
REMARK SMILES IDX 24 24 21 25
REMARK H PARENT 3 17
ROOT
ATOM      1  C   UNL     1       3.626  45.268  54.994  1.00  0.00     0.188 C 
ENDROOT
BRANCH   1   2
ATOM      2  N   UNL     1       4.395  46.002  53.989  1.00  0.00    -0.256 N 
ATOM      3  O   UNL     1       2.661  47.187  52.905  1.00  0.00    -0.248 OA
ATOM      4  C   UNL     1       3.832  46.720  52.899  1.00  0.00     0.325 C 
ATOM      5  N   UNL     1       4.703  46.826  51.781  1.00  0.00    -0.319 N 
ATOM      6  C   UNL     1       5.922  46.086  52.099  1.00  0.00     0.147 C 
ATOM      7  C   UNL     1       5.682  45.624  53.509  1.00  0.00     0.261 C 
ATOM      8  C   UNL     1       7.191  46.956  51.930  1.00  0.00     0.048 C 
ATOM      9  C   UNL     1       6.117  44.947  51.166  1.00  0.00    -0.010 A 
ATOM     10  O   UNL     1       6.504  44.954  54.188  1.00  0.00    -0.271 OA
ATOM     11  C   UNL     1       8.097  46.232  50.912  1.00  0.00     0.039 C 
ATOM     12  C   UNL     1       5.241  43.880  50.934  1.00  0.00     0.007 A 
ATOM     13  C   UNL     1       7.321  45.031  50.514  1.00  0.00    -0.042 A 
ATOM     14  C   UNL     1       5.616  42.888  50.016  1.00  0.00     0.000 A 
ATOM     15  C   UNL     1       7.713  44.054  49.595  1.00  0.00     0.004 A 
ATOM     16  C   UNL     1       6.850  42.974  49.347  1.00  0.00     0.000 A 
ATOM     17  H   UNL     1       4.467  47.266  50.864  1.00  0.00     0.166 HD
ENDBRANCH   1   2
BRANCH   1  18
ATOM     18  C   UNL     1       2.477  44.550  54.337  1.00  0.00     0.079 A 
ATOM     19  N   UNL     1       2.747  43.750  53.267  1.00  0.00    -0.256 NA
ATOM     20  C   UNL     1       1.158  44.610  54.837  1.00  0.00     0.065 A 
ATOM     21  C   UNL     1       1.787  43.010  52.654  1.00  0.00     0.132 A 
ATOM     22  C   UNL     1       0.161  43.849  54.217  1.00  0.00     0.044 A 
ATOM     23  C   UNL     1       0.473  43.043  53.121  1.00  0.00     0.060 A 
ATOM     24  Cl  UNL     1       0.707  45.614  56.211  1.00  0.00    -0.082 Cl
ATOM     25  Cl  UNL     1      -0.770  42.082  52.344  1.00  0.00    -0.083 Cl
ENDBRANCH   1  18
TORSDOF 2
ENDMDL
MODEL 4
REMARK VINA RESULT:    -8.813      1.523      2.132
REMARK INTER + INTRA:         -10.281
REMARK INTER:                  -9.726
REMARK INTRA:                  -0.556
REMARK UNBOUND:                -0.438
REMARK SMILES O=C1N[C@@]2(CCc3ccccc32)C(=O)N1Cc1ncc(Cl)cc1Cl
REMARK SMILES IDX 16 1 15 2 1 3 2 4 3 5 4 6 13 7 5 8 12 9 14 10 6 11 11 12
REMARK SMILES IDX 7 13 10 14 8 15 9 16 17 18 18 19 23 20 19 21 22 22 20 23
REMARK SMILES IDX 24 24 21 25
REMARK H PARENT 3 17
ROOT
ATOM      1  C   UNL     1       5.904  47.501  53.079  1.00  0.00     0.188 C 
ENDROOT
BRANCH   1   2
ATOM      2  N   UNL     1       4.958  46.450  53.451  1.00  0.00    -0.256 N 
ATOM      3  O   UNL     1       6.029  45.570  55.365  1.00  0.00    -0.248 OA
ATOM      4  C   UNL     1       5.206  45.439  54.420  1.00  0.00     0.325 C 
ATOM      5  N   UNL     1       4.465  44.248  54.196  1.00  0.00    -0.319 N 
ATOM      6  C   UNL     1       3.700  44.427  52.963  1.00  0.00     0.147 C 
ATOM      7  C   UNL     1       4.025  45.839  52.564  1.00  0.00     0.261 C 
ATOM      8  C   UNL     1       2.189  44.164  53.172  1.00  0.00     0.048 C 
ATOM      9  C   UNL     1       4.116  43.447  51.927  1.00  0.00    -0.010 A 
ATOM     10  O   UNL     1       3.555  46.418  51.549  1.00  0.00    -0.271 OA
ATOM     11  C   UNL     1       1.790  43.044  52.188  1.00  0.00     0.039 C 
ATOM     12  C   UNL     1       5.397  43.268  51.393  1.00  0.00     0.007 A 
ATOM     13  C   UNL     1       3.056  42.686  51.501  1.00  0.00    -0.042 A 
ATOM     14  C   UNL     1       5.585  42.290  50.405  1.00  0.00     0.000 A 
ATOM     15  C   UNL     1       3.222  41.706  50.518  1.00  0.00     0.004 A 
ATOM     16  C   UNL     1       4.499  41.511  49.967  1.00  0.00     0.000 A 
ATOM     17  H   UNL     1       4.537  43.370  54.757  1.00  0.00     0.166 HD
ENDBRANCH   1   2
BRANCH   1  18
ATOM     18  C   UNL     1       7.200  46.886  52.618  1.00  0.00     0.079 A 
ATOM     19  N   UNL     1       7.201  46.197  51.442  1.00  0.00    -0.256 NA
ATOM     20  C   UNL     1       8.416  47.069  53.311  1.00  0.00     0.065 A 
ATOM     21  C   UNL     1       8.334  45.667  50.912  1.00  0.00     0.132 A 
ATOM     22  C   UNL     1       9.591  46.532  52.774  1.00  0.00     0.044 A 
ATOM     23  C   UNL     1       9.554  45.829  51.569  1.00  0.00     0.060 A 
ATOM     24  Cl  UNL     1       8.519  47.941  54.836  1.00  0.00    -0.082 Cl
ATOM     25  Cl  UNL     1      11.024  45.159  50.886  1.00  0.00    -0.083 Cl
ENDBRANCH   1  18
TORSDOF 2
ENDMDL
MODEL 5
REMARK VINA RESULT:    -8.741      2.568      5.556
REMARK INTER + INTRA:         -10.201
REMARK INTER:                  -9.721
REMARK INTRA:                  -0.480
REMARK UNBOUND:                -0.438
REMARK SMILES O=C1N[C@@]2(CCc3ccccc32)C(=O)N1Cc1ncc(Cl)cc1Cl
REMARK SMILES IDX 16 1 15 2 1 3 2 4 3 5 4 6 13 7 5 8 12 9 14 10 6 11 11 12
REMARK SMILES IDX 7 13 10 14 8 15 9 16 17 18 18 19 23 20 19 21 22 22 20 23
REMARK SMILES IDX 24 24 21 25
REMARK H PARENT 3 17
ROOT
ATOM      1  C   UNL     1       2.663  44.451  53.877  1.00  0.00     0.188 C 
ENDROOT
BRANCH   1   2
ATOM      2  N   UNL     1       3.611  45.563  53.822  1.00  0.00    -0.256 N 
ATOM      3  O   UNL     1       2.315  47.173  52.677  1.00  0.00    -0.248 OA
ATOM      4  C   UNL     1       3.440  46.739  53.041  1.00  0.00     0.325 C 
ATOM      5  N   UNL     1       4.666  47.358  52.675  1.00  0.00    -0.319 N 
ATOM      6  C   UNL     1       5.752  46.526  53.188  1.00  0.00     0.147 C 
ATOM      7  C   UNL     1       5.027  45.437  53.927  1.00  0.00     0.261 C 
ATOM      8  C   UNL     1       6.739  47.332  54.066  1.00  0.00     0.048 C 
ATOM      9  C   UNL     1       6.584  45.987  52.081  1.00  0.00    -0.010 A 
ATOM     10  O   UNL     1       5.593  44.497  54.547  1.00  0.00    -0.271 OA
ATOM     11  C   UNL     1       8.135  47.179  53.427  1.00  0.00     0.039 C 
ATOM     12  C   UNL     1       6.159  45.197  51.007  1.00  0.00     0.007 A 
ATOM     13  C   UNL     1       7.900  46.350  52.219  1.00  0.00    -0.042 A 
ATOM     14  C   UNL     1       7.108  44.775  50.064  1.00  0.00     0.000 A 
ATOM     15  C   UNL     1       8.861  45.940  51.290  1.00  0.00     0.004 A 
ATOM     16  C   UNL     1       8.458  45.146  50.206  1.00  0.00     0.000 A 
ATOM     17  H   UNL     1       4.766  48.199  52.063  1.00  0.00     0.166 HD
ENDBRANCH   1   2
BRANCH   1  18
ATOM     18  C   UNL     1       2.821  43.581  52.659  1.00  0.00     0.079 A 
ATOM     19  N   UNL     1       3.906  42.759  52.592  1.00  0.00    -0.256 NA
ATOM     20  C   UNL     1       1.851  43.525  51.634  1.00  0.00     0.065 A 
ATOM     21  C   UNL     1       4.097  41.890  51.567  1.00  0.00     0.132 A 
ATOM     22  C   UNL     1       2.034  42.631  50.574  1.00  0.00     0.044 A 
ATOM     23  C   UNL     1       3.159  41.807  50.537  1.00  0.00     0.060 A 
ATOM     24  Cl  UNL     1       0.418  44.546  51.626  1.00  0.00    -0.082 Cl
ATOM     25  Cl  UNL     1       3.391  40.679  49.215  1.00  0.00    -0.083 Cl
ENDBRANCH   1  18
TORSDOF 2
ENDMDL
