ligand_33_conformer_3_docked
     RDKit          3D

 52 55  0  0  0  0  0  0  0  0999 V2000
    8.9570   48.1740   54.9270 C   0  0  0  0  0  0  0  0  0  0  0  0
    8.7040   46.8300   54.2050 C   0  0  2  0  0  0  0  0  0  0  0  0
    9.9120   46.4500   53.3070 C   0  0  0  0  0  0  0  0  0  0  0  0
    9.6240   46.6430   51.8060 C   0  0  0  0  0  0  0  0  0  0  0  0
    8.7770   47.8940   51.5550 C   0  0  0  0  0  0  0  0  0  0  0  0
    7.4450   47.8510   52.3370 C   0  0  0  0  0  0  0  0  0  0  0  0
    7.4580   46.8150   53.3940 N   0  0  0  0  0  0  0  0  0  0  0  0
    6.2020   46.7750   54.1720 C   0  0  0  0  0  0  0  0  0  0  0  0
    5.0650   47.5200   53.4460 C   0  0  0  0  0  0  0  0  0  0  0  0
    3.6780   46.8290   53.5450 C   0  0  0  0  0  0  0  0  0  0  0  0
    2.9370   46.7410   52.1930 C   0  0  0  0  0  0  0  0  0  0  0  0
    3.6730   45.8200   51.2130 C   0  0  0  0  0  0  0  0  0  0  0  0
    4.1250   44.5850   51.8720 N   0  0  0  0  0  0  0  0  0  0  0  0
    4.7200   43.5530   51.0720 C   0  0  0  0  0  0  0  0  0  0  0  0
    4.1040   42.3390   50.9350 N   0  0  0  0  0  0  0  0  0  0  0  0
    4.6460   41.3400   50.1690 C   0  0  0  0  0  0  0  0  0  0  0  0
    5.8340   41.5290   49.5200 N   0  0  0  0  0  0  0  0  0  0  0  0
    6.4470   42.7300   49.6550 C   0  0  0  0  0  0  0  0  0  0  0  0
    7.6330   43.0920   49.1470 N   0  0  0  0  0  0  0  0  0  0  0  0
    7.9000   44.3220   49.5750 N   0  0  0  0  0  0  0  0  0  0  0  0
    6.8730   44.7400   50.3560 C   0  0  0  0  0  0  0  0  0  0  0  0
    5.9320   43.7310   50.4090 C   0  0  0  0  0  0  0  0  0  0  0  0
    3.6260   44.2470   53.2100 C   0  0  0  0  0  0  0  0  0  0  0  0
    3.8110   45.4190   54.1930 C   0  0  0  0  0  0  0  0  0  0  0  0
    8.9274   48.0168   56.0153 H   0  0  0  0  0  0  0  0  0  0  0  0
    9.9444   48.5644   54.6396 H   0  0  0  0  0  0  0  0  0  0  0  0
    8.1791   48.8967   54.6396 H   0  0  0  0  0  0  0  0  0  0  0  0
    8.5781   46.0838   55.0033 H   0  0  0  0  0  0  0  0  0  0  0  0
   10.7687   47.0817   53.5846 H   0  0  0  0  0  0  0  0  0  0  0  0
   10.1225   45.3826   53.4693 H   0  0  0  0  0  0  0  0  0  0  0  0
   10.5785   46.7435   51.2686 H   0  0  0  0  0  0  0  0  0  0  0  0
    9.0632   45.7678   51.4461 H   0  0  0  0  0  0  0  0  0  0  0  0
    9.3474   48.7797   51.8716 H   0  0  0  0  0  0  0  0  0  0  0  0
    8.5421   47.9383   50.4813 H   0  0  0  0  0  0  0  0  0  0  0  0
    7.2747   48.8326   52.8034 H   0  0  0  0  0  0  0  0  0  0  0  0
    6.6414   47.6038   51.6277 H   0  0  0  0  0  0  0  0  0  0  0  0
    5.9055   45.7259   54.3188 H   0  0  0  0  0  0  0  0  0  0  0  0
    6.3781   47.2706   55.1381 H   0  0  0  0  0  0  0  0  0  0  0  0
    4.9797   48.5262   53.8822 H   0  0  0  0  0  0  0  0  0  0  0  0
    5.3319   47.5357   52.3790 H   0  0  0  0  0  0  0  0  0  0  0  0
    3.0607   47.4691   54.1925 H   0  0  0  0  0  0  0  0  0  0  0  0
    1.9247   46.3461   52.3643 H   0  0  0  0  0  0  0  0  0  0  0  0
    2.8927   47.7492   51.7552 H   0  0  0  0  0  0  0  0  0  0  0  0
    2.9929   45.5576   50.3892 H   0  0  0  0  0  0  0  0  0  0  0  0
    4.5574   46.3537   50.8347 H   0  0  0  0  0  0  0  0  0  0  0  0
    4.1206   40.3781   50.0757 H   0  0  0  0  0  0  0  0  0  0  0  0
    8.2600   42.5190   48.5410 H   0  0  0  0  0  0  0  0  0  0  0  0
    6.8020   45.7150   50.8604 H   0  0  0  0  0  0  0  0  0  0  0  0
    2.5555   44.0032   53.1415 H   0  0  0  0  0  0  0  0  0  0  0  0
    4.1996   43.3869   53.5857 H   0  0  0  0  0  0  0  0  0  0  0  0
    3.0498   45.3297   54.9820 H   0  0  0  0  0  0  0  0  0  0  0  0
    4.8386   45.3463   54.5786 H   0  0  0  0  0  0  0  0  0  0  0  0
  1  2  1  0
  2  3  1  0
  3  4  1  0
  4  5  1  0
  5  6  1  0
  6  7  1  0
  7  8  1  0
  8  9  1  0
  9 10  1  0
 10 11  1  0
 11 12  1  0
 12 13  1  0
 13 14  1  0
 14 15  2  0
 15 16  1  0
 16 17  2  0
 17 18  1  0
 18 19  1  0
 19 20  1  0
 20 21  2  0
 21 22  1  0
 13 23  1  0
 23 24  1  0
  7  2  1  0
 24 10  1  0
 22 14  1  0
 22 18  2  0
  1 25  1  0
  1 26  1  0
  1 27  1  0
  2 28  1  1
  3 29  1  0
  3 30  1  0
  4 31  1  0
  4 32  1  0
  5 33  1  0
  5 34  1  0
  6 35  1  0
  6 36  1  0
  8 37  1  0
  8 38  1  0
  9 39  1  0
  9 40  1  0
 10 41  1  0
 11 42  1  0
 11 43  1  0
 12 44  1  0
 12 45  1  0
 16 46  1  0
 19 47  1  0
 21 48  1  0
 23 49  1  0
 23 50  1  0
 24 51  1  0
 24 52  1  0
M  END
>  <meeko>  (1) 
{"is_sidechain": [false], "free_energy": -9.731, "intermolecular_energy": -12.007, "internal_energy": -1.115}

$$$$
ligand_33_conformer_3_docked
     RDKit          3D

 52 55  0  0  0  0  0  0  0  0999 V2000
    8.1390   48.7110   52.0360 C   0  0  0  0  0  0  0  0  0  0  0  0
    8.8650   47.4890   52.6450 C   0  0  2  0  0  0  0  0  0  0  0  0
    9.8440   46.8580   51.6180 C   0  0  0  0  0  0  0  0  0  0  0  0
    9.3270   45.5280   51.0380 C   0  0  0  0  0  0  0  0  0  0  0  0
    7.8120   45.5680   50.8110 C   0  0  0  0  0  0  0  0  0  0  0  0
    7.0460   45.9000   52.1110 C   0  0  0  0  0  0  0  0  0  0  0  0
    7.9420   46.4410   53.1570 N   0  0  0  0  0  0  0  0  0  0  0  0
    7.2240   46.7910   54.4010 C   0  0  0  0  0  0  0  0  0  0  0  0
    5.9160   45.9890   54.5410 C   0  0  0  0  0  0  0  0  0  0  0  0
    4.6560   46.8550   54.8180 C   0  0  0  0  0  0  0  0  0  0  0  0
    4.1340   47.5980   53.5690 C   0  0  0  0  0  0  0  0  0  0  0  0
    3.6100   46.6150   52.5150 C   0  0  0  0  0  0  0  0  0  0  0  0
    2.7880   45.5600   53.1260 N   0  0  0  0  0  0  0  0  0  0  0  0
    2.1110   44.6280   52.2680 C   0  0  0  0  0  0  0  0  0  0  0  0
    0.7990   44.8210   51.9330 N   0  0  0  0  0  0  0  0  0  0  0  0
    0.1320   43.9520   51.1080 C   0  0  0  0  0  0  0  0  0  0  0  0
    0.7660   42.8530   50.6000 N   0  0  0  0  0  0  0  0  0  0  0  0
    2.0650   42.6580   50.9320 C   0  0  0  0  0  0  0  0  0  0  0  0
    2.8410   41.6230   50.5840 N   0  0  0  0  0  0  0  0  0  0  0  0
    4.0200   41.7810   51.1760 N   0  0  0  0  0  0  0  0  0  0  0  0
    3.9900   42.9270   51.9020 C   0  0  0  0  0  0  0  0  0  0  0  0
    2.7440   43.5020   51.7470 C   0  0  0  0  0  0  0  0  0  0  0  0
    2.3450   45.6930   54.5190 C   0  0  0  0  0  0  0  0  0  0  0  0
    3.5280   45.9940   55.4580 C   0  0  0  0  0  0  0  0  0  0  0  0
    7.7582   49.3519   52.8449 H   0  0  0  0  0  0  0  0  0  0  0  0
    8.8433   49.2839   51.4150 H   0  0  0  0  0  0  0  0  0  0  0  0
    7.2990   48.3664   51.4150 H   0  0  0  0  0  0  0  0  0  0  0  0
    9.4234   47.8787   53.5089 H   0  0  0  0  0  0  0  0  0  0  0  0
    9.9913   47.5682   50.7910 H   0  0  0  0  0  0  0  0  0  0  0  0
   10.7851   46.6448   52.1461 H   0  0  0  0  0  0  0  0  0  0  0  0
    9.8279   45.3378   50.0773 H   0  0  0  0  0  0  0  0  0  0  0  0
    9.5479   44.7270   51.7588 H   0  0  0  0  0  0  0  0  0  0  0  0
    7.5850   46.3367   50.0577 H   0  0  0  0  0  0  0  0  0  0  0  0
    7.4909   44.5729   50.4694 H   0  0  0  0  0  0  0  0  0  0  0  0
    6.2706   46.6470   51.8859 H   0  0  0  0  0  0  0  0  0  0  0  0
    6.6012   44.9688   52.4917 H   0  0  0  0  0  0  0  0  0  0  0  0
    7.8723   46.5712   55.2621 H   0  0  0  0  0  0  0  0  0  0  0  0
    6.9713   47.8610   54.3650 H   0  0  0  0  0  0  0  0  0  0  0  0
    5.7521   45.4330   53.6061 H   0  0  0  0  0  0  0  0  0  0  0  0
    6.0431   45.3330   55.4148 H   0  0  0  0  0  0  0  0  0  0  0  0
    4.9673   47.6332   55.5303 H   0  0  0  0  0  0  0  0  0  0  0  0
    3.3176   48.2718   53.8679 H   0  0  0  0  0  0  0  0  0  0  0  0
    4.9668   48.1669   53.1299 H   0  0  0  0  0  0  0  0  0  0  0  0
    2.9997   47.1658   51.7841 H   0  0  0  0  0  0  0  0  0  0  0  0
    4.4731   46.1408   52.0249 H   0  0  0  0  0  0  0  0  0  0  0  0
   -0.9213   44.1409   50.8532 H   0  0  0  0  0  0  0  0  0  0  0  0
    2.5800   40.8160   49.9750 H   0  0  0  0  0  0  0  0  0  0  0  0
    4.8151   43.3284   52.5088 H   0  0  0  0  0  0  0  0  0  0  0  0
    1.6166   46.5146   54.5861 H   0  0  0  0  0  0  0  0  0  0  0  0
    1.8893   44.7413   54.8300 H   0  0  0  0  0  0  0  0  0  0  0  0
    3.1415   46.5317   56.3363 H   0  0  0  0  0  0  0  0  0  0  0  0
    3.9804   45.0242   55.7127 H   0  0  0  0  0  0  0  0  0  0  0  0
  1  2  1  0
  2  3  1  0
  3  4  1  0
  4  5  1  0
  5  6  1  0
  6  7  1  0
  7  8  1  0
  8  9  1  0
  9 10  1  0
 10 11  1  0
 11 12  1  0
 12 13  1  0
 13 14  1  0
 14 15  2  0
 15 16  1  0
 16 17  2  0
 17 18  1  0
 18 19  1  0
 19 20  1  0
 20 21  2  0
 21 22  1  0
 13 23  1  0
 23 24  1  0
  7  2  1  0
 24 10  1  0
 22 14  1  0
 22 18  2  0
  1 25  1  0
  1 26  1  0
  1 27  1  0
  2 28  1  1
  3 29  1  0
  3 30  1  0
  4 31  1  0
  4 32  1  0
  5 33  1  0
  5 34  1  0
  6 35  1  0
  6 36  1  0
  8 37  1  0
  8 38  1  0
  9 39  1  0
  9 40  1  0
 10 41  1  0
 11 42  1  0
 11 43  1  0
 12 44  1  0
 12 45  1  0
 16 46  1  0
 19 47  1  0
 21 48  1  0
 23 49  1  0
 23 50  1  0
 24 51  1  0
 24 52  1  0
M  END
>  <meeko>  (2) 
{"is_sidechain": [false], "free_energy": -8.37, "intermolecular_energy": -10.491, "internal_energy": -0.951}

$$$$
ligand_33_conformer_3_docked
     RDKit          3D

 52 55  0  0  0  0  0  0  0  0999 V2000
    7.9970   48.8360   52.0420 C   0  0  0  0  0  0  0  0  0  0  0  0
    8.0610   47.6840   53.0710 C   0  0  2  0  0  0  0  0  0  0  0  0
    9.4910   47.5460   53.6590 C   0  0  0  0  0  0  0  0  0  0  0  0
   10.2470   46.3210   53.1120 C   0  0  0  0  0  0  0  0  0  0  0  0
    9.9460   46.0950   51.6270 C   0  0  0  0  0  0  0  0  0  0  0  0
    8.4310   45.9280   51.3690 C   0  0  0  0  0  0  0  0  0  0  0  0
    7.6220   46.3730   52.5250 N   0  0  0  0  0  0  0  0  0  0  0  0
    6.1680   46.2460   52.2880 C   0  0  0  0  0  0  0  0  0  0  0  0
    5.7680   44.7860   52.0020 C   0  0  0  0  0  0  0  0  0  0  0  0
    4.5800   44.6250   51.0140 C   0  0  0  0  0  0  0  0  0  0  0  0
    3.7950   43.3090   51.2050 C   0  0  0  0  0  0  0  0  0  0  0  0
    3.0770   43.2820   52.5610 C   0  0  0  0  0  0  0  0  0  0  0  0
    2.4200   44.5660   52.8460 N   0  0  0  0  0  0  0  0  0  0  0  0
    1.5930   44.6730   54.0150 C   0  0  0  0  0  0  0  0  0  0  0  0
    2.0750   45.2610   55.1530 N   0  0  0  0  0  0  0  0  0  0  0  0
    1.3040   45.3850   56.2800 C   0  0  0  0  0  0  0  0  0  0  0  0
    0.0220   44.9120   56.2990 N   0  0  0  0  0  0  0  0  0  0  0  0
   -0.4560   44.3260   55.1750 C   0  0  0  0  0  0  0  0  0  0  0  0
   -1.6580   43.7560   55.0110 N   0  0  0  0  0  0  0  0  0  0  0  0
   -1.6990   43.2400   53.7870 N   0  0  0  0  0  0  0  0  0  0  0  0
   -0.5140   43.4880   53.1730 C   0  0  0  0  0  0  0  0  0  0  0  0
    0.2880   44.1910   54.0500 C   0  0  0  0  0  0  0  0  0  0  0  0
    2.2780   45.5670   51.7830 C   0  0  0  0  0  0  0  0  0  0  0  0
    3.6270   45.8540   51.0970 C   0  0  0  0  0  0  0  0  0  0  0  0
    7.9435   49.7984   52.5719 H   0  0  0  0  0  0  0  0  0  0  0  0
    8.8977   48.8144   51.4109 H   0  0  0  0  0  0  0  0  0  0  0  0
    7.1042   48.7148   51.4109 H   0  0  0  0  0  0  0  0  0  0  0  0
    7.3512   47.9581   53.8654 H   0  0  0  0  0  0  0  0  0  0  0  0
   10.0625   48.4519   53.4088 H   0  0  0  0  0  0  0  0  0  0  0  0
    9.3900   47.4137   54.7463 H   0  0  0  0  0  0  0  0  0  0  0  0
   11.3279   46.4822   53.2375 H   0  0  0  0  0  0  0  0  0  0  0  0
    9.9171   45.4329   53.6709 H   0  0  0  0  0  0  0  0  0  0  0  0
   10.3120   46.9595   51.0536 H   0  0  0  0  0  0  0  0  0  0  0  0
   10.4512   45.1701   51.3119 H   0  0  0  0  0  0  0  0  0  0  0  0
    8.1522   46.5258   50.4887 H   0  0  0  0  0  0  0  0  0  0  0  0
    8.2293   44.8595   51.2030 H   0  0  0  0  0  0  0  0  0  0  0  0
    5.6285   46.5962   53.1803 H   0  0  0  0  0  0  0  0  0  0  0  0
    5.9072   46.8538   51.4091 H   0  0  0  0  0  0  0  0  0  0  0  0
    6.6404   44.2676   51.5776 H   0  0  0  0  0  0  0  0  0  0  0  0
    5.4379   44.3587   52.9603 H   0  0  0  0  0  0  0  0  0  0  0  0
    5.0203   44.5748   50.0072 H   0  0  0  0  0  0  0  0  0  0  0  0
    3.0488   43.2168   50.4021 H   0  0  0  0  0  0  0  0  0  0  0  0
    4.5069   42.4711   51.1715 H   0  0  0  0  0  0  0  0  0  0  0  0
    2.3174   42.4865   52.5479 H   0  0  0  0  0  0  0  0  0  0  0  0
    3.8253   43.0945   53.3452 H   0  0  0  0  0  0  0  0  0  0  0  0
    1.7205   45.8689   57.1757 H   0  0  0  0  0  0  0  0  0  0  0  0
   -2.4290   43.6990   55.7110 H   0  0  0  0  0  0  0  0  0  0  0  0
   -0.2399   43.1817   52.1527 H   0  0  0  0  0  0  0  0  0  0  0  0
    1.5670   45.1928   51.0317 H   0  0  0  0  0  0  0  0  0  0  0  0
    1.9135   46.5016   52.2342 H   0  0  0  0  0  0  0  0  0  0  0  0
    3.4253   46.2029   50.0735 H   0  0  0  0  0  0  0  0  0  0  0  0
    4.1390   46.6076   51.7134 H   0  0  0  0  0  0  0  0  0  0  0  0
  1  2  1  0
  2  3  1  0
  3  4  1  0
  4  5  1  0
  5  6  1  0
  6  7  1  0
  7  8  1  0
  8  9  1  0
  9 10  1  0
 10 11  1  0
 11 12  1  0
 12 13  1  0
 13 14  1  0
 14 15  2  0
 15 16  1  0
 16 17  2  0
 17 18  1  0
 18 19  1  0
 19 20  1  0
 20 21  2  0
 21 22  1  0
 13 23  1  0
 23 24  1  0
  7  2  1  0
 24 10  1  0
 22 14  1  0
 22 18  2  0
  1 25  1  0
  1 26  1  0
  1 27  1  0
  2 28  1  1
  3 29  1  0
  3 30  1  0
  4 31  1  0
  4 32  1  0
  5 33  1  0
  5 34  1  0
  6 35  1  0
  6 36  1  0
  8 37  1  0
  8 38  1  0
  9 39  1  0
  9 40  1  0
 10 41  1  0
 11 42  1  0
 11 43  1  0
 12 44  1  0
 12 45  1  0
 16 46  1  0
 19 47  1  0
 21 48  1  0
 23 49  1  0
 23 50  1  0
 24 51  1  0
 24 52  1  0
M  END
>  <meeko>  (3) 
{"is_sidechain": [false], "free_energy": -8.317, "intermolecular_energy": -10.673, "internal_energy": -0.703}

$$$$
ligand_33_conformer_3_docked
     RDKit          3D

 52 55  0  0  0  0  0  0  0  0999 V2000
    8.0270   48.8240   51.9550 C   0  0  0  0  0  0  0  0  0  0  0  0
    8.0150   47.6200   52.9250 C   0  0  2  0  0  0  0  0  0  0  0  0
    9.3420   47.5420   53.7270 C   0  0  0  0  0  0  0  0  0  0  0  0
   10.2630   46.4040   53.2490 C   0  0  0  0  0  0  0  0  0  0  0  0
   10.2140   46.2460   51.7260 C   0  0  0  0  0  0  0  0  0  0  0  0
    8.7750   45.9960   51.2220 C   0  0  0  0  0  0  0  0  0  0  0  0
    7.7650   46.3170   52.2540 N   0  0  0  0  0  0  0  0  0  0  0  0
    6.3790   46.1090   51.7820 C   0  0  0  0  0  0  0  0  0  0  0  0
    5.4940   45.4960   52.8840 C   0  0  0  0  0  0  0  0  0  0  0  0
    4.7930   46.5370   53.8000 C   0  0  0  0  0  0  0  0  0  0  0  0
    3.5730   47.2140   53.1390 C   0  0  0  0  0  0  0  0  0  0  0  0
    2.4430   46.2060   52.8920 C   0  0  0  0  0  0  0  0  0  0  0  0
    2.2430   45.3280   54.0550 N   0  0  0  0  0  0  0  0  0  0  0  0
    1.1390   44.4100   54.0430 C   0  0  0  0  0  0  0  0  0  0  0  0
    1.1160   43.3640   53.1620 N   0  0  0  0  0  0  0  0  0  0  0  0
    0.0800   42.4670   53.1370 C   0  0  0  0  0  0  0  0  0  0  0  0
   -0.9740   42.6010   53.9970 N   0  0  0  0  0  0  0  0  0  0  0  0
   -0.9560   43.6380   54.8680 C   0  0  0  0  0  0  0  0  0  0  0  0
   -1.9110   43.9700   55.7470 N   0  0  0  0  0  0  0  0  0  0  0  0
   -1.5320   45.0890   56.3560 N   0  0  0  0  0  0  0  0  0  0  0  0
   -0.3270   45.4650   55.8590 C   0  0  0  0  0  0  0  0  0  0  0  0
    0.0570   44.5380   54.9100 C   0  0  0  0  0  0  0  0  0  0  0  0
    2.8840   45.6520   55.3340 C   0  0  0  0  0  0  0  0  0  0  0  0
    4.3960   45.8910   55.1610 C   0  0  0  0  0  0  0  0  0  0  0  0
    8.0363   49.7601   52.5326 H   0  0  0  0  0  0  0  0  0  0  0  0
    8.9247   48.7753   51.3212 H   0  0  0  0  0  0  0  0  0  0  0  0
    7.1285   48.7932   51.3212 H   0  0  0  0  0  0  0  0  0  0  0  0
    7.1715   47.7997   53.6078 H   0  0  0  0  0  0  0  0  0  0  0  0
    9.8765   48.4969   53.6155 H   0  0  0  0  0  0  0  0  0  0  0  0
    9.0828   47.3392   54.7766 H   0  0  0  0  0  0  0  0  0  0  0  0
   11.2962   46.6288   53.5522 H   0  0  0  0  0  0  0  0  0  0  0  0
    9.9172   45.4647   53.7053 H   0  0  0  0  0  0  0  0  0  0  0  0
   10.6001   47.1645   51.2600 H   0  0  0  0  0  0  0  0  0  0  0  0
   10.8286   45.3758   51.4522 H   0  0  0  0  0  0  0  0  0  0  0  0
    8.5932   46.6258   50.3386 H   0  0  0  0  0  0  0  0  0  0  0  0
    8.6815   44.9284   50.9742 H   0  0  0  0  0  0  0  0  0  0  0  0
    5.9547   47.0781   51.4805 H   0  0  0  0  0  0  0  0  0  0  0  0
    6.4047   45.4116   50.9318 H   0  0  0  0  0  0  0  0  0  0  0  0
    4.7172   44.8851   52.4008 H   0  0  0  0  0  0  0  0  0  0  0  0
    6.1618   44.9087   53.5314 H   0  0  0  0  0  0  0  0  0  0  0  0
    5.5275   47.3362   53.9782 H   0  0  0  0  0  0  0  0  0  0  0  0
    3.2036   48.0116   53.8004 H   0  0  0  0  0  0  0  0  0  0  0  0
    3.8879   47.6275   52.1695 H   0  0  0  0  0  0  0  0  0  0  0  0
    1.5107   46.7551   52.6936 H   0  0  0  0  0  0  0  0  0  0  0  0
    2.7191   45.5810   52.0299 H   0  0  0  0  0  0  0  0  0  0  0  0
    0.0968   41.6332   52.4197 H   0  0  0  0  0  0  0  0  0  0  0  0
   -2.8080   43.4670   55.9240 H   0  0  0  0  0  0  0  0  0  0  0  0
    0.2455   46.3548   56.1600 H   0  0  0  0  0  0  0  0  0  0  0  0
    2.4226   46.5621   55.7450 H   0  0  0  0  0  0  0  0  0  0  0  0
    2.7442   44.8007   56.0165 H   0  0  0  0  0  0  0  0  0  0  0  0
    4.7340   46.5561   55.9693 H   0  0  0  0  0  0  0  0  0  0  0  0
    4.8761   44.9017   55.1913 H   0  0  0  0  0  0  0  0  0  0  0  0
  1  2  1  0
  2  3  1  0
  3  4  1  0
  4  5  1  0
  5  6  1  0
  6  7  1  0
  7  8  1  0
  8  9  1  0
  9 10  1  0
 10 11  1  0
 11 12  1  0
 12 13  1  0
 13 14  1  0
 14 15  2  0
 15 16  1  0
 16 17  2  0
 17 18  1  0
 18 19  1  0
 19 20  1  0
 20 21  2  0
 21 22  1  0
 13 23  1  0
 23 24  1  0
  7  2  1  0
 24 10  1  0
 22 14  1  0
 22 18  2  0
  1 25  1  0
  1 26  1  0
  1 27  1  0
  2 28  1  1
  3 29  1  0
  3 30  1  0
  4 31  1  0
  4 32  1  0
  5 33  1  0
  5 34  1  0
  6 35  1  0
  6 36  1  0
  8 37  1  0
  8 38  1  0
  9 39  1  0
  9 40  1  0
 10 41  1  0
 11 42  1  0
 11 43  1  0
 12 44  1  0
 12 45  1  0
 16 46  1  0
 19 47  1  0
 21 48  1  0
 23 49  1  0
 23 50  1  0
 24 51  1  0
 24 52  1  0
M  END
>  <meeko>  (4) 
{"is_sidechain": [false], "free_energy": -7.926, "intermolecular_energy": -10.5, "internal_energy": -0.395}

$$$$
ligand_33_conformer_3_docked
     RDKit          3D

 52 55  0  0  0  0  0  0  0  0999 V2000
    0.3140   45.3390   52.3780 C   0  0  0  0  0  0  0  0  0  0  0  0
    0.3120   44.1740   53.3940 C   0  0  2  0  0  0  0  0  0  0  0  0
   -0.5230   44.5390   54.6510 C   0  0  0  0  0  0  0  0  0  0  0  0
    0.3520   44.8420   55.8820 C   0  0  0  0  0  0  0  0  0  0  0  0
    1.6220   45.6040   55.4920 C   0  0  0  0  0  0  0  0  0  0  0  0
    2.4530   44.8320   54.4420 C   0  0  0  0  0  0  0  0  0  0  0  0
    1.6730   43.7450   53.8110 N   0  0  0  0  0  0  0  0  0  0  0  0
    2.4420   43.0100   52.7830 C   0  0  0  0  0  0  0  0  0  0  0  0
    3.8170   43.6600   52.5370 C   0  0  0  0  0  0  0  0  0  0  0  0
    4.0690   44.0950   51.0670 C   0  0  0  0  0  0  0  0  0  0  0  0
    4.1110   45.6270   50.8780 C   0  0  0  0  0  0  0  0  0  0  0  0
    5.3180   46.2440   51.5960 C   0  0  0  0  0  0  0  0  0  0  0  0
    6.5380   45.4530   51.3720 N   0  0  0  0  0  0  0  0  0  0  0  0
    7.7870   45.9570   51.8670 C   0  0  0  0  0  0  0  0  0  0  0  0
    8.9400   45.7740   51.1530 N   0  0  0  0  0  0  0  0  0  0  0  0
   10.1450   46.2530   51.5970 C   0  0  0  0  0  0  0  0  0  0  0  0
   10.2290   46.9280   52.7830 N   0  0  0  0  0  0  0  0  0  0  0  0
    9.0900   47.1080   53.4930 C   0  0  0  0  0  0  0  0  0  0  0  0
    8.9710   47.6920   54.6930 N   0  0  0  0  0  0  0  0  0  0  0  0
    7.6990   47.5990   55.0670 N   0  0  0  0  0  0  0  0  0  0  0  0
    7.0080   46.9540   54.0920 C   0  0  0  0  0  0  0  0  0  0  0  0
    7.8880   46.6420   53.0750 C   0  0  0  0  0  0  0  0  0  0  0  0
    6.5510   44.4050   50.3440 C   0  0  0  0  0  0  0  0  0  0  0  0
    5.3660   43.4360   50.5140 C   0  0  0  0  0  0  0  0  0  0  0  0
    0.3156   46.2970   52.9186 H   0  0  0  0  0  0  0  0  0  0  0  0
    1.2120   45.2730   51.7462 H   0  0  0  0  0  0  0  0  0  0  0  0
   -0.5843   45.2761   51.7462 H   0  0  0  0  0  0  0  0  0  0  0  0
   -0.1480   43.3241   52.8686 H   0  0  0  0  0  0  0  0  0  0  0  0
   -1.1298   45.4279   54.4238 H   0  0  0  0  0  0  0  0  0  0  0  0
   -1.1496   43.6688   54.8963 H   0  0  0  0  0  0  0  0  0  0  0  0
   -0.2272   45.4514   56.5914 H   0  0  0  0  0  0  0  0  0  0  0  0
    0.6486   43.8865   56.3391 H   0  0  0  0  0  0  0  0  0  0  0  0
    1.3372   46.5805   55.0732 H   0  0  0  0  0  0  0  0  0  0  0  0
    2.2388   45.7264   56.3945 H   0  0  0  0  0  0  0  0  0  0  0  0
    2.7801   45.5343   53.6612 H   0  0  0  0  0  0  0  0  0  0  0  0
    3.3145   44.3796   54.9550 H   0  0  0  0  0  0  0  0  0  0  0  0
    2.5914   41.9738   53.1207 H   0  0  0  0  0  0  0  0  0  0  0  0
    1.8737   43.0359   51.8415 H   0  0  0  0  0  0  0  0  0  0  0  0
    3.8956   44.5509   53.1774 H   0  0  0  0  0  0  0  0  0  0  0  0
    4.5717   42.8947   52.7711 H   0  0  0  0  0  0  0  0  0  0  0  0
    3.2050   43.7378   50.4874 H   0  0  0  0  0  0  0  0  0  0  0  0
    4.1786   45.8538   49.8038 H   0  0  0  0  0  0  0  0  0  0  0  0
    3.1942   46.0554   51.3091 H   0  0  0  0  0  0  0  0  0  0  0  0
    5.4778   47.2637   51.2157 H   0  0  0  0  0  0  0  0  0  0  0  0
    5.1082   46.2584   52.6757 H   0  0  0  0  0  0  0  0  0  0  0  0
   11.0514   46.0931   50.9946 H   0  0  0  0  0  0  0  0  0  0  0  0
    9.7310   48.1280   55.2600 H   0  0  0  0  0  0  0  0  0  0  0  0
    5.9332   46.7205   54.1095 H   0  0  0  0  0  0  0  0  0  0  0  0
    6.4886   44.8761   49.3519 H   0  0  0  0  0  0  0  0  0  0  0  0
    7.4842   43.8317   50.4460 H   0  0  0  0  0  0  0  0  0  0  0  0
    5.1368   42.9975   49.5316 H   0  0  0  0  0  0  0  0  0  0  0  0
    5.6779   42.6868   51.2566 H   0  0  0  0  0  0  0  0  0  0  0  0
  1  2  1  0
  2  3  1  0
  3  4  1  0
  4  5  1  0
  5  6  1  0
  6  7  1  0
  7  8  1  0
  8  9  1  0
  9 10  1  0
 10 11  1  0
 11 12  1  0
 12 13  1  0
 13 14  1  0
 14 15  2  0
 15 16  1  0
 16 17  2  0
 17 18  1  0
 18 19  1  0
 19 20  1  0
 20 21  2  0
 21 22  1  0
 13 23  1  0
 23 24  1  0
  7  2  1  0
 24 10  1  0
 22 14  1  0
 22 18  2  0
  1 25  1  0
  1 26  1  0
  1 27  1  0
  2 28  1  6
  3 29  1  0
  3 30  1  0
  4 31  1  0
  4 32  1  0
  5 33  1  0
  5 34  1  0
  6 35  1  0
  6 36  1  0
  8 37  1  0
  8 38  1  0
  9 39  1  0
  9 40  1  0
 10 41  1  0
 11 42  1  0
 11 43  1  0
 12 44  1  0
 12 45  1  0
 16 46  1  0
 19 47  1  0
 21 48  1  0
 23 49  1  0
 23 50  1  0
 24 51  1  0
 24 52  1  0
M  END
>  <meeko>  (5) 
{"is_sidechain": [false], "free_energy": -7.899, "intermolecular_energy": -10.335, "internal_energy": -0.525}

$$$$
