ligand_81_conformer_4_docked
     RDKit          3D

 48 50  0  0  0  0  0  0  0  0999 V2000
    2.6020   44.5100   51.2070 O   0  0  0  0  0  0  0  0  0  0  0  0
    3.2610   43.7780   51.9940 C   0  0  0  0  0  0  0  0  0  0  0  0
    2.5930   43.0280   53.0190 N   0  0  0  0  0  0  0  0  0  0  0  0
    1.2310   43.2550   53.4250 C   0  0  0  0  0  0  0  0  0  0  0  0
    0.1520   42.8700   52.6120 C   0  0  0  0  0  0  0  0  0  0  0  0
   -1.1600   43.1350   53.0110 C   0  0  0  0  0  0  0  0  0  0  0  0
   -1.4080   43.7920   54.2170 C   0  0  0  0  0  0  0  0  0  0  0  0
   -0.3430   44.1970   55.0410 C   0  0  0  0  0  0  0  0  0  0  0  0
   -0.6170   44.9110   56.3120 C   0  0  0  0  0  0  0  0  0  0  0  0
   -1.2990   44.3380   57.2060 O   0  0  0  0  0  0  0  0  0  0  0  0
   -0.0850   46.2270   56.5500 N   0  0  0  0  0  0  0  0  0  0  0  0
   -0.5630   47.1080   57.5810 C   0  0  0  0  0  0  0  0  0  0  0  0
   -1.7620   47.8120   57.3980 C   0  0  0  0  0  0  0  0  0  0  0  0
   -2.2260   48.6550   58.4100 C   0  0  0  0  0  0  0  0  0  0  0  0
   -1.4970   48.7880   59.5920 C   0  0  0  0  0  0  0  0  0  0  0  0
   -2.0660   49.8430   60.8730 Cl  0  0  0  0  0  0  0  0  0  0  0  0
   -0.3090   48.0690   59.7460 C   0  0  0  0  0  0  0  0  0  0  0  0
    0.1260   47.2530   58.7490 N   0  0  0  0  0  0  0  0  0  0  0  0
    0.9760   43.9380   54.6250 C   0  0  0  0  0  0  0  0  0  0  0  0
    4.6830   43.6610   51.8440 N   0  0  0  0  0  0  0  0  0  0  0  0
    5.4270   44.4300   50.8390 C   0  0  2  0  0  0  0  0  0  0  0  0
    6.2480   43.5020   49.9300 C   0  0  0  0  0  0  0  0  0  0  0  0
    5.7640   42.1880   49.9930 O   0  0  0  0  0  0  0  0  0  0  0  0
    6.3200   45.4640   51.4980 C   0  0  0  0  0  0  0  0  0  0  0  0
    5.7560   46.4560   52.3190 C   0  0  0  0  0  0  0  0  0  0  0  0
    6.5670   47.4260   52.9150 C   0  0  0  0  0  0  0  0  0  0  0  0
    7.9470   47.4220   52.6930 C   0  0  0  0  0  0  0  0  0  0  0  0
    8.7230   48.3680   53.2780 F   0  0  0  0  0  0  0  0  0  0  0  0
    8.5190   46.4490   51.8650 C   0  0  0  0  0  0  0  0  0  0  0  0
   10.2490   46.4380   51.5740 Cl  0  0  0  0  0  0  0  0  0  0  0  0
    7.7090   45.4770   51.2660 C   0  0  0  0  0  0  0  0  0  0  0  0
    3.1040   42.2220   53.4430 H   0  0  0  0  0  0  0  0  0  0  0  0
    0.3412   42.3577   51.6572 H   0  0  0  0  0  0  0  0  0  0  0  0
   -2.0004   42.8249   52.3727 H   0  0  0  0  0  0  0  0  0  0  0  0
   -2.4443   43.9945   54.5253 H   0  0  0  0  0  0  0  0  0  0  0  0
    0.7180   46.5490   55.9650 H   0  0  0  0  0  0  0  0  0  0  0  0
   -2.3327   47.7010   56.4642 H   0  0  0  0  0  0  0  0  0  0  0  0
   -3.1644   49.2130   58.2755 H   0  0  0  0  0  0  0  0  0  0  0  0
    0.2745   48.1630   60.6738 H   0  0  0  0  0  0  0  0  0  0  0  0
    1.8179   44.2748   55.2477 H   0  0  0  0  0  0  0  0  0  0  0  0
    5.1940   43.0070   52.4800 H   0  0  0  0  0  0  0  0  0  0  0  0
    4.6948   44.9601   50.2121 H   0  0  0  0  0  0  0  0  0  0  0  0
    6.1810   43.8617   48.8926 H   0  0  0  0  0  0  0  0  0  0  0  0
    7.2938   43.5093   50.2710 H   0  0  0  0  0  0  0  0  0  0  0  0
    4.9010   42.2370   50.4800 H   0  0  0  0  0  0  0  0  0  0  0  0
    4.6700   46.4690   52.4934 H   0  0  0  0  0  0  0  0  0  0  0  0
    6.1178   48.1949   53.5608 H   0  0  0  0  0  0  0  0  0  0  0  0
    8.1604   44.7184   50.6098 H   0  0  0  0  0  0  0  0  0  0  0  0
  1  2  2  0
  2  3  1  0
  3  4  1  0
  4  5  2  0
  5  6  1  0
  6  7  2  0
  7  8  1  0
  8  9  1  0
  9 10  2  0
  9 11  1  0
 11 12  1  0
 12 13  2  0
 13 14  1  0
 14 15  2  0
 15 16  1  0
 15 17  1  0
 17 18  2  0
  8 19  2  0
  2 20  1  0
 20 21  1  0
 21 22  1  0
 22 23  1  0
 21 24  1  0
 24 25  2  0
 25 26  1  0
 26 27  2  0
 27 28  1  0
 27 29  1  0
 29 30  1  0
 29 31  2  0
 19  4  1  0
 31 24  1  0
 18 12  1  0
  3 32  1  0
  5 33  1  0
  6 34  1  0
  7 35  1  0
 11 36  1  0
 13 37  1  0
 14 38  1  0
 17 39  1  0
 19 40  1  0
 20 41  1  0
 21 42  1  6
 22 43  1  0
 22 44  1  0
 23 45  1  0
 25 46  1  0
 26 47  1  0
 31 48  1  0
M  END
>  <meeko>  (1) 
{"is_sidechain": [false], "free_energy": -9.008, "intermolecular_energy": -12.432, "internal_energy": -0.79}

$$$$
ligand_81_conformer_4_docked
     RDKit          3D

 48 50  0  0  0  0  0  0  0  0999 V2000
    2.4200   45.6150   52.5660 O   0  0  0  0  0  0  0  0  0  0  0  0
    3.1240   45.0250   53.4310 C   0  0  0  0  0  0  0  0  0  0  0  0
    2.5070   44.1910   54.4220 N   0  0  0  0  0  0  0  0  0  0  0  0
    1.0970   44.1850   54.7050 C   0  0  0  0  0  0  0  0  0  0  0  0
    0.1920   43.4690   53.9030 C   0  0  0  0  0  0  0  0  0  0  0  0
   -1.1760   43.5080   54.1760 C   0  0  0  0  0  0  0  0  0  0  0  0
   -1.6570   44.2670   55.2440 C   0  0  0  0  0  0  0  0  0  0  0  0
   -0.7720   45.0000   56.0550 C   0  0  0  0  0  0  0  0  0  0  0  0
   -1.2950   45.8170   57.1770 C   0  0  0  0  0  0  0  0  0  0  0  0
   -2.1980   45.3390   57.9180 O   0  0  0  0  0  0  0  0  0  0  0  0
   -0.7620   47.1250   57.4500 N   0  0  0  0  0  0  0  0  0  0  0  0
   -1.4180   48.0990   58.2800 C   0  0  0  0  0  0  0  0  0  0  0  0
   -0.9400   48.3510   59.5740 C   0  0  0  0  0  0  0  0  0  0  0  0
   -1.5730   49.3090   60.3670 C   0  0  0  0  0  0  0  0  0  0  0  0
   -2.6740   50.0070   59.8680 C   0  0  0  0  0  0  0  0  0  0  0  0
   -3.4810   51.2150   60.8520 Cl  0  0  0  0  0  0  0  0  0  0  0  0
   -3.1230   49.7380   58.5730 C   0  0  0  0  0  0  0  0  0  0  0  0
   -2.4910   48.8010   57.8150 N   0  0  0  0  0  0  0  0  0  0  0  0
    0.6050   44.9650   55.7640 C   0  0  0  0  0  0  0  0  0  0  0  0
    4.5520   45.1550   53.4030 N   0  0  0  0  0  0  0  0  0  0  0  0
    5.2370   46.0220   52.4370 C   0  0  2  0  0  0  0  0  0  0  0  0
    5.2570   45.3850   51.0390 C   0  0  0  0  0  0  0  0  0  0  0  0
    4.3430   46.0220   50.1880 O   0  0  0  0  0  0  0  0  0  0  0  0
    6.6460   46.3450   52.9000 C   0  0  0  0  0  0  0  0  0  0  0  0
    6.8570   46.8800   54.1820 C   0  0  0  0  0  0  0  0  0  0  0  0
    8.1480   47.1990   54.6120 C   0  0  0  0  0  0  0  0  0  0  0  0
    9.2410   46.9960   53.7650 C   0  0  0  0  0  0  0  0  0  0  0  0
   10.4890   47.3080   54.1940 F   0  0  0  0  0  0  0  0  0  0  0  0
    9.0420   46.4780   52.4800 C   0  0  0  0  0  0  0  0  0  0  0  0
   10.4060   46.2250   51.4050 Cl  0  0  0  0  0  0  0  0  0  0  0  0
    7.7510   46.1580   52.0470 C   0  0  0  0  0  0  0  0  0  0  0  0
    3.1110   43.4950   54.9150 H   0  0  0  0  0  0  0  0  0  0  0  0
    0.5639   42.8746   53.0555 H   0  0  0  0  0  0  0  0  0  0  0  0
   -1.8771   42.9390   53.5478 H   0  0  0  0  0  0  0  0  0  0  0  0
   -2.7367   44.2921   55.4531 H   0  0  0  0  0  0  0  0  0  0  0  0
    0.1720   47.3720   57.0520 H   0  0  0  0  0  0  0  0  0  0  0  0
   -0.0720   47.7973   59.9613 H   0  0  0  0  0  0  0  0  0  0  0  0
   -1.2051   49.5137   61.3832 H   0  0  0  0  0  0  0  0  0  0  0  0
   -3.9872   50.2834   58.1660 H   0  0  0  0  0  0  0  0  0  0  0  0
    1.3042   45.5560   56.3738 H   0  0  0  0  0  0  0  0  0  0  0  0
    5.1100   44.6140   54.1020 H   0  0  0  0  0  0  0  0  0  0  0  0
    4.6728   46.9642   52.3736 H   0  0  0  0  0  0  0  0  0  0  0  0
    6.2681   45.4765   50.6155 H   0  0  0  0  0  0  0  0  0  0  0  0
    4.9743   44.3259   51.1303 H   0  0  0  0  0  0  0  0  0  0  0  0
    3.5060   46.1250   50.7130 H   0  0  0  0  0  0  0  0  0  0  0  0
    6.0007   47.0488   54.8515 H   0  0  0  0  0  0  0  0  0  0  0  0
    8.3043   47.6110   55.6199 H   0  0  0  0  0  0  0  0  0  0  0  0
    7.5978   45.7578   51.0339 H   0  0  0  0  0  0  0  0  0  0  0  0
  1  2  2  0
  2  3  1  0
  3  4  1  0
  4  5  2  0
  5  6  1  0
  6  7  2  0
  7  8  1  0
  8  9  1  0
  9 10  2  0
  9 11  1  0
 11 12  1  0
 12 13  2  0
 13 14  1  0
 14 15  2  0
 15 16  1  0
 15 17  1  0
 17 18  2  0
  8 19  2  0
  2 20  1  0
 20 21  1  0
 21 22  1  0
 22 23  1  0
 21 24  1  0
 24 25  2  0
 25 26  1  0
 26 27  2  0
 27 28  1  0
 27 29  1  0
 29 30  1  0
 29 31  2  0
 19  4  1  0
 31 24  1  0
 18 12  1  0
  3 32  1  0
  5 33  1  0
  6 34  1  0
  7 35  1  0
 11 36  1  0
 13 37  1  0
 14 38  1  0
 17 39  1  0
 19 40  1  0
 20 41  1  0
 21 42  1  6
 22 43  1  0
 22 44  1  0
 23 45  1  0
 25 46  1  0
 26 47  1  0
 31 48  1  0
M  END
>  <meeko>  (2) 
{"is_sidechain": [false], "free_energy": -8.368, "intermolecular_energy": -11.48, "internal_energy": -0.857}

$$$$
ligand_81_conformer_4_docked
     RDKit          3D

 48 50  0  0  0  0  0  0  0  0999 V2000
    3.5350   44.2560   51.7360 O   0  0  0  0  0  0  0  0  0  0  0  0
    3.1830   43.2150   52.3550 C   0  0  0  0  0  0  0  0  0  0  0  0
    3.6490   41.9260   51.9310 N   0  0  0  0  0  0  0  0  0  0  0  0
    4.2730   41.6740   50.6600 C   0  0  0  0  0  0  0  0  0  0  0  0
    5.5740   42.1240   50.3810 C   0  0  0  0  0  0  0  0  0  0  0  0
    6.1440   41.8990   49.1270 C   0  0  0  0  0  0  0  0  0  0  0  0
    5.4210   41.2300   48.1370 C   0  0  0  0  0  0  0  0  0  0  0  0
    4.1130   40.7790   48.3900 C   0  0  0  0  0  0  0  0  0  0  0  0
    3.3470   40.0860   47.3260 C   0  0  0  0  0  0  0  0  0  0  0  0
    2.4880   40.7330   46.6650 O   0  0  0  0  0  0  0  0  0  0  0  0
    3.5980   38.7040   47.0160 N   0  0  0  0  0  0  0  0  0  0  0  0
    2.6990   37.8790   46.2550 C   0  0  0  0  0  0  0  0  0  0  0  0
    1.7610   37.0720   46.9170 C   0  0  0  0  0  0  0  0  0  0  0  0
    0.8830   36.2860   46.1700 C   0  0  0  0  0  0  0  0  0  0  0  0
    0.9430   36.3080   44.7750 C   0  0  0  0  0  0  0  0  0  0  0  0
   -0.1550   35.3260   43.8230 Cl  0  0  0  0  0  0  0  0  0  0  0  0
    1.8850   37.1260   44.1460 C   0  0  0  0  0  0  0  0  0  0  0  0
    2.7310   37.8860   44.8920 N   0  0  0  0  0  0  0  0  0  0  0  0
    3.5420   41.0230   49.6530 C   0  0  0  0  0  0  0  0  0  0  0  0
    2.3440   43.3200   53.5140 N   0  0  0  0  0  0  0  0  0  0  0  0
    1.8070   44.6060   53.9740 C   0  0  2  0  0  0  0  0  0  0  0  0
    2.1790   44.8660   55.4430 C   0  0  0  0  0  0  0  0  0  0  0  0
    3.5660   44.7830   55.6270 O   0  0  0  0  0  0  0  0  0  0  0  0
    0.3030   44.6670   53.7830 C   0  0  0  0  0  0  0  0  0  0  0  0
   -0.5510   44.5050   54.8870 C   0  0  0  0  0  0  0  0  0  0  0  0
   -1.9380   44.5390   54.7200 C   0  0  0  0  0  0  0  0  0  0  0  0
   -2.4880   44.7280   53.4500 C   0  0  0  0  0  0  0  0  0  0  0  0
   -3.8360   44.7610   53.3000 F   0  0  0  0  0  0  0  0  0  0  0  0
   -1.6490   44.8750   52.3390 C   0  0  0  0  0  0  0  0  0  0  0  0
   -2.3280   45.1050   50.7380 Cl  0  0  0  0  0  0  0  0  0  0  0  0
   -0.2590   44.8400   52.5040 C   0  0  0  0  0  0  0  0  0  0  0  0
    3.5970   41.1410   52.6190 H   0  0  0  0  0  0  0  0  0  0  0  0
    6.1465   42.6565   51.1548 H   0  0  0  0  0  0  0  0  0  0  0  0
    7.1655   42.2496   48.9179 H   0  0  0  0  0  0  0  0  0  0  0  0
    5.8779   41.0545   47.1519 H   0  0  0  0  0  0  0  0  0  0  0  0
    4.5010   38.2820   47.3300 H   0  0  0  0  0  0  0  0  0  0  0  0
    1.7183   37.0592   48.0161 H   0  0  0  0  0  0  0  0  0  0  0  0
    0.1443   35.6497   46.6794 H   0  0  0  0  0  0  0  0  0  0  0  0
    1.9424   37.1553   43.0479 H   0  0  0  0  0  0  0  0  0  0  0  0
    2.5100   40.6997   49.8539 H   0  0  0  0  0  0  0  0  0  0  0  0
    2.1120   42.4440   54.0360 H   0  0  0  0  0  0  0  0  0  0  0  0
    2.2622   45.3980   53.3612 H   0  0  0  0  0  0  0  0  0  0  0  0
    1.8367   45.8714   55.7293 H   0  0  0  0  0  0  0  0  0  0  0  0
    1.6937   44.1036   56.0700 H   0  0  0  0  0  0  0  0  0  0  0  0
    3.7510   45.1940   56.5110 H   0  0  0  0  0  0  0  0  0  0  0  0
   -0.1250   44.3504   55.8893 H   0  0  0  0  0  0  0  0  0  0  0  0
   -2.5985   44.4166   55.5911 H   0  0  0  0  0  0  0  0  0  0  0  0
    0.3981   44.9484   51.6285 H   0  0  0  0  0  0  0  0  0  0  0  0
  1  2  2  0
  2  3  1  0
  3  4  1  0
  4  5  2  0
  5  6  1  0
  6  7  2  0
  7  8  1  0
  8  9  1  0
  9 10  2  0
  9 11  1  0
 11 12  1  0
 12 13  2  0
 13 14  1  0
 14 15  2  0
 15 16  1  0
 15 17  1  0
 17 18  2  0
  8 19  2  0
  2 20  1  0
 20 21  1  0
 21 22  1  0
 22 23  1  0
 21 24  1  0
 24 25  2  0
 25 26  1  0
 26 27  2  0
 27 28  1  0
 27 29  1  0
 29 30  1  0
 29 31  2  0
 19  4  1  0
 31 24  1  0
 18 12  1  0
  3 32  1  0
  5 33  1  0
  6 34  1  0
  7 35  1  0
 11 36  1  0
 13 37  1  0
 14 38  1  0
 17 39  1  0
 19 40  1  0
 20 41  1  0
 21 42  1  6
 22 43  1  0
 22 44  1  0
 23 45  1  0
 25 46  1  0
 26 47  1  0
 31 48  1  0
M  END
>  <meeko>  (3) 
{"is_sidechain": [false], "free_energy": -7.757, "intermolecular_energy": -10.722, "internal_energy": -0.772}

$$$$
ligand_81_conformer_4_docked
     RDKit          3D

 48 50  0  0  0  0  0  0  0  0999 V2000
    1.5840   43.5460   53.6500 O   0  0  0  0  0  0  0  0  0  0  0  0
    1.6080   44.8010   53.5300 C   0  0  0  0  0  0  0  0  0  0  0  0
    0.4040   45.5250   53.2360 N   0  0  0  0  0  0  0  0  0  0  0  0
   -0.8130   44.9110   52.7760 C   0  0  0  0  0  0  0  0  0  0  0  0
   -1.7480   44.3750   53.6770 C   0  0  0  0  0  0  0  0  0  0  0  0
   -2.9040   43.7510   53.2040 C   0  0  0  0  0  0  0  0  0  0  0  0
   -3.1350   43.6490   51.8310 C   0  0  0  0  0  0  0  0  0  0  0  0
   -2.2080   44.1700   50.9110 C   0  0  0  0  0  0  0  0  0  0  0  0
   -2.4550   44.0400   49.4540 C   0  0  0  0  0  0  0  0  0  0  0  0
   -2.0540   43.0060   48.8510 O   0  0  0  0  0  0  0  0  0  0  0  0
   -3.1750   45.0560   48.7330 N   0  0  0  0  0  0  0  0  0  0  0  0
   -3.1690   45.1770   47.3000 C   0  0  0  0  0  0  0  0  0  0  0  0
   -2.5680   46.2900   46.6950 C   0  0  0  0  0  0  0  0  0  0  0  0
   -2.5540   46.3920   45.3030 C   0  0  0  0  0  0  0  0  0  0  0  0
   -3.1330   45.3880   44.5260 C   0  0  0  0  0  0  0  0  0  0  0  0
   -3.1230   45.5000   42.7760 Cl  0  0  0  0  0  0  0  0  0  0  0  0
   -3.7180   44.2880   45.1590 C   0  0  0  0  0  0  0  0  0  0  0  0
   -3.7220   44.2070   46.5170 N   0  0  0  0  0  0  0  0  0  0  0  0
   -1.0390   44.7850   51.3960 C   0  0  0  0  0  0  0  0  0  0  0  0
    2.8350   45.5170   53.7250 N   0  0  0  0  0  0  0  0  0  0  0  0
    4.1050   44.8290   53.9900 C   0  0  2  0  0  0  0  0  0  0  0  0
    4.7260   45.3070   55.3130 C   0  0  0  0  0  0  0  0  0  0  0  0
    3.7890   46.0220   56.0730 O   0  0  0  0  0  0  0  0  0  0  0  0
    5.0770   45.0200   52.8410 C   0  0  0  0  0  0  0  0  0  0  0  0
    5.0040   44.1820   51.7150 C   0  0  0  0  0  0  0  0  0  0  0  0
    5.9060   44.3360   50.6590 C   0  0  0  0  0  0  0  0  0  0  0  0
    6.8970   45.3190   50.7190 C   0  0  0  0  0  0  0  0  0  0  0  0
    7.7670   45.4590   49.6870 F   0  0  0  0  0  0  0  0  0  0  0  0
    6.9910   46.1500   51.8420 C   0  0  0  0  0  0  0  0  0  0  0  0
    8.2350   47.3840   51.9310 Cl  0  0  0  0  0  0  0  0  0  0  0  0
    6.0890   45.9980   52.9010 C   0  0  0  0  0  0  0  0  0  0  0  0
    0.3920   46.5490   53.4400 H   0  0  0  0  0  0  0  0  0  0  0  0
   -1.5686   44.4472   54.7599 H   0  0  0  0  0  0  0  0  0  0  0  0
   -3.6348   43.3386   53.9152 H   0  0  0  0  0  0  0  0  0  0  0  0
   -4.0489   43.1574   51.4662 H   0  0  0  0  0  0  0  0  0  0  0  0
   -3.7650   45.7250   49.2770 H   0  0  0  0  0  0  0  0  0  0  0  0
   -2.1109   47.0770   47.3128 H   0  0  0  0  0  0  0  0  0  0  0  0
   -2.0872   47.2626   44.8192 H   0  0  0  0  0  0  0  0  0  0  0  0
   -4.1754   43.4874   44.5591 H   0  0  0  0  0  0  0  0  0  0  0  0
   -0.2934   45.1716   50.6856 H   0  0  0  0  0  0  0  0  0  0  0  0
    2.8130   46.5600   53.6680 H   0  0  0  0  0  0  0  0  0  0  0  0
    3.8915   43.7538   54.0820 H   0  0  0  0  0  0  0  0  0  0  0  0
    5.0658   44.4332   55.8884 H   0  0  0  0  0  0  0  0  0  0  0  0
    5.5745   45.9690   55.0855 H   0  0  0  0  0  0  0  0  0  0  0  0
    3.6880   45.5220   56.9240 H   0  0  0  0  0  0  0  0  0  0  0  0
    4.2320   43.4000   51.6648 H   0  0  0  0  0  0  0  0  0  0  0  0
    5.8356   43.6813   49.7778 H   0  0  0  0  0  0  0  0  0  0  0  0
    6.1707   46.6463   53.7859 H   0  0  0  0  0  0  0  0  0  0  0  0
  1  2  2  0
  2  3  1  0
  3  4  1  0
  4  5  2  0
  5  6  1  0
  6  7  2  0
  7  8  1  0
  8  9  1  0
  9 10  2  0
  9 11  1  0
 11 12  1  0
 12 13  2  0
 13 14  1  0
 14 15  2  0
 15 16  1  0
 15 17  1  0
 17 18  2  0
  8 19  2  0
  2 20  1  0
 20 21  1  0
 21 22  1  0
 22 23  1  0
 21 24  1  0
 24 25  2  0
 25 26  1  0
 26 27  2  0
 27 28  1  0
 27 29  1  0
 29 30  1  0
 29 31  2  0
 19  4  1  0
 31 24  1  0
 18 12  1  0
  3 32  1  0
  5 33  1  0
  6 34  1  0
  7 35  1  0
 11 36  1  0
 13 37  1  0
 14 38  1  0
 17 39  1  0
 19 40  1  0
 20 41  1  0
 21 42  1  1
 22 43  1  0
 22 44  1  0
 23 45  1  0
 25 46  1  0
 26 47  1  0
 31 48  1  0
M  END
>  <meeko>  (4) 
{"is_sidechain": [false], "free_energy": -7.667, "intermolecular_energy": -10.66, "internal_energy": -0.711}

$$$$
ligand_81_conformer_4_docked
     RDKit          3D

 48 50  0  0  0  0  0  0  0  0999 V2000
   -0.2290   44.1050   55.4760 O   0  0  0  0  0  0  0  0  0  0  0  0
   -0.7100   45.1310   54.9200 C   0  0  0  0  0  0  0  0  0  0  0  0
   -0.5750   45.3190   53.5040 N   0  0  0  0  0  0  0  0  0  0  0  0
    0.3260   44.5650   52.6740 C   0  0  0  0  0  0  0  0  0  0  0  0
   -0.1330   43.5200   51.8560 C   0  0  0  0  0  0  0  0  0  0  0  0
    0.7660   42.7790   51.0870 C   0  0  0  0  0  0  0  0  0  0  0  0
    2.1310   43.0660   51.1320 C   0  0  0  0  0  0  0  0  0  0  0  0
    2.6160   44.1020   51.9510 C   0  0  0  0  0  0  0  0  0  0  0  0
    4.0700   44.3870   52.0050 C   0  0  0  0  0  0  0  0  0  0  0  0
    4.8890   43.4320   51.9070 O   0  0  0  0  0  0  0  0  0  0  0  0
    4.5540   45.7360   52.1300 N   0  0  0  0  0  0  0  0  0  0  0  0
    5.8970   46.0710   52.5190 C   0  0  0  0  0  0  0  0  0  0  0  0
    6.9180   46.0980   51.5580 C   0  0  0  0  0  0  0  0  0  0  0  0
    8.2160   46.4390   51.9420 C   0  0  0  0  0  0  0  0  0  0  0  0
    8.4870   46.7520   53.2750 C   0  0  0  0  0  0  0  0  0  0  0  0
   10.1130   47.1830   53.7730 Cl  0  0  0  0  0  0  0  0  0  0  0  0
    7.4480   46.7220   54.2080 C   0  0  0  0  0  0  0  0  0  0  0  0
    6.1900   46.3880   53.8130 N   0  0  0  0  0  0  0  0  0  0  0  0
    1.7030   44.8340   52.7330 C   0  0  0  0  0  0  0  0  0  0  0  0
   -1.4290   46.0970   55.6980 N   0  0  0  0  0  0  0  0  0  0  0  0
   -1.5690   45.9780   57.1550 C   0  0  2  0  0  0  0  0  0  0  0  0
   -2.7610   45.0810   57.5240 C   0  0  0  0  0  0  0  0  0  0  0  0
   -2.3290   43.7870   57.8460 O   0  0  0  0  0  0  0  0  0  0  0  0
   -1.7040   47.3430   57.8010 C   0  0  0  0  0  0  0  0  0  0  0  0
   -0.8960   47.6810   58.9000 C   0  0  0  0  0  0  0  0  0  0  0  0
   -1.0250   48.9290   59.5170 C   0  0  0  0  0  0  0  0  0  0  0  0
   -1.9670   49.8490   59.0490 C   0  0  0  0  0  0  0  0  0  0  0  0
   -2.0830   51.0580   59.6550 F   0  0  0  0  0  0  0  0  0  0  0  0
   -2.7890   49.5190   57.9650 C   0  0  0  0  0  0  0  0  0  0  0  0
   -3.9800   50.6640   57.3740 Cl  0  0  0  0  0  0  0  0  0  0  0  0
   -2.6620   48.2700   57.3470 C   0  0  0  0  0  0  0  0  0  0  0  0
   -1.2230   45.9940   53.0400 H   0  0  0  0  0  0  0  0  0  0  0  0
   -1.2068   43.2840   51.8210 H   0  0  0  0  0  0  0  0  0  0  0  0
    0.3974   41.9665   50.4436 H   0  0  0  0  0  0  0  0  0  0  0  0
    2.8329   42.4778   50.5226 H   0  0  0  0  0  0  0  0  0  0  0  0
    3.9060   46.5190   51.8910 H   0  0  0  0  0  0  0  0  0  0  0  0
    6.6975   45.8521   50.5087 H   0  0  0  0  0  0  0  0  0  0  0  0
    9.0237   46.4610   51.1956 H   0  0  0  0  0  0  0  0  0  0  0  0
    7.6469   46.9683   55.2614 H   0  0  0  0  0  0  0  0  0  0  0  0
    2.0730   45.6273   53.3992 H   0  0  0  0  0  0  0  0  0  0  0  0
   -1.8590   46.9100   55.2010 H   0  0  0  0  0  0  0  0  0  0  0  0
   -0.6544   45.5053   57.5425 H   0  0  0  0  0  0  0  0  0  0  0  0
   -3.2829   45.5131   58.3906 H   0  0  0  0  0  0  0  0  0  0  0  0
   -3.4387   45.0217   56.6596 H   0  0  0  0  0  0  0  0  0  0  0  0
   -2.7020   43.1900   57.1450 H   0  0  0  0  0  0  0  0  0  0  0  0
   -0.1571   46.9588   59.2774 H   0  0  0  0  0  0  0  0  0  0  0  0
   -0.3837   49.1872   60.3726 H   0  0  0  0  0  0  0  0  0  0  0  0
   -3.3150   48.0104   56.5007 H   0  0  0  0  0  0  0  0  0  0  0  0
  1  2  2  0
  2  3  1  0
  3  4  1  0
  4  5  2  0
  5  6  1  0
  6  7  2  0
  7  8  1  0
  8  9  1  0
  9 10  2  0
  9 11  1  0
 11 12  1  0
 12 13  2  0
 13 14  1  0
 14 15  2  0
 15 16  1  0
 15 17  1  0
 17 18  2  0
  8 19  2  0
  2 20  1  0
 20 21  1  0
 21 22  1  0
 22 23  1  0
 21 24  1  0
 24 25  2  0
 25 26  1  0
 26 27  2  0
 27 28  1  0
 27 29  1  0
 29 30  1  0
 29 31  2  0
 19  4  1  0
 31 24  1  0
 18 12  1  0
  3 32  1  0
  5 33  1  0
  6 34  1  0
  7 35  1  0
 11 36  1  0
 13 37  1  0
 14 38  1  0
 17 39  1  0
 19 40  1  0
 20 41  1  0
 21 42  1  1
 22 43  1  0
 22 44  1  0
 23 45  1  0
 25 46  1  0
 26 47  1  0
 31 48  1  0
M  END
>  <meeko>  (5) 
{"is_sidechain": [false], "free_energy": -7.466, "intermolecular_energy": -10.21, "internal_energy": -0.883}

$$$$
