ligand_77_conformer_5_docked
     RDKit          3D

 42 45  0  0  0  0  0  0  0  0999 V2000
    1.8940   46.8120   52.5340 O   0  0  0  0  0  0  0  0  0  0  0  0
    2.5430   46.0380   53.2890 C   0  0  0  0  0  0  0  0  0  0  0  0
    1.9210   44.8440   53.7940 N   0  0  0  0  0  0  0  0  0  0  0  0
    0.5180   44.5210   53.5080 C   0  0  2  0  0  0  0  0  0  0  0  0
   -0.2820   44.4910   54.7900 C   0  0  0  0  0  0  0  0  0  0  0  0
   -1.5320   43.8520   54.8350 C   0  0  0  0  0  0  0  0  0  0  0  0
   -2.2550   43.8130   56.0280 C   0  0  0  0  0  0  0  0  0  0  0  0
   -1.7200   44.4040   57.1730 C   0  0  0  0  0  0  0  0  0  0  0  0
   -0.5030   45.0090   57.1220 N   0  0  0  0  0  0  0  0  0  0  0  0
    0.2210   45.0630   55.9710 C   0  0  0  0  0  0  0  0  0  0  0  0
    0.4220   43.1460   52.8200 C   0  0  0  0  0  0  0  0  0  0  0  0
    1.4000   42.9210   51.6760 C   0  0  0  0  0  0  0  0  0  0  0  0
   -0.0720   43.1640   51.3810 C   0  0  0  0  0  0  0  0  0  0  0  0
    3.9330   46.3830   53.6350 C   0  0  0  0  0  0  0  0  0  0  0  0
    5.0620   46.1800   52.8580 C   0  0  0  0  0  0  0  0  0  0  0  0
    6.1010   46.6700   53.6310 C   0  0  0  0  0  0  0  0  0  0  0  0
    7.5390   46.6920   53.2640 C   0  0  0  0  0  0  0  0  0  0  0  0
    7.9570   46.3140   51.9740 C   0  0  0  0  0  0  0  0  0  0  0  0
    9.3120   46.3360   51.6320 C   0  0  0  0  0  0  0  0  0  0  0  0
   10.2670   46.7330   52.5700 C   0  0  0  0  0  0  0  0  0  0  0  0
    9.8670   47.1100   53.8540 C   0  0  0  0  0  0  0  0  0  0  0  0
    8.5130   47.0900   54.2030 C   0  0  0  0  0  0  0  0  0  0  0  0
    5.5940   47.1280   54.7930 N   0  0  0  0  0  0  0  0  0  0  0  0
    4.2820   46.9550   54.8040 N   0  0  0  0  0  0  0  0  0  0  0  0
    2.4810   44.1830   54.3760 H   0  0  0  0  0  0  0  0  0  0  0  0
    0.1107   45.2952   52.8411 H   0  0  0  0  0  0  0  0  0  0  0  0
   -1.9415   43.3818   53.9288 H   0  0  0  0  0  0  0  0  0  0  0  0
   -3.2380   43.3207   56.0653 H   0  0  0  0  0  0  0  0  0  0  0  0
   -2.2829   44.3806   58.1177 H   0  0  0  0  0  0  0  0  0  0  0  0
    1.2041   45.5565   55.9650 H   0  0  0  0  0  0  0  0  0  0  0  0
    0.1451   42.5951   53.7309 H   0  0  0  0  0  0  0  0  0  0  0  0
    2.1449   43.6920   51.4296 H   0  0  0  0  0  0  0  0  0  0  0  0
    2.1261   42.1365   51.4164 H   0  0  0  0  0  0  0  0  0  0  0  0
   -0.3917   44.1107   50.9211 H   0  0  0  0  0  0  0  0  0  0  0  0
   -0.8514   42.6280   50.8196 H   0  0  0  0  0  0  0  0  0  0  0  0
    5.1198   45.7316   51.8552 H   0  0  0  0  0  0  0  0  0  0  0  0
    7.2113   45.9988   51.2293 H   0  0  0  0  0  0  0  0  0  0  0  0
    9.6270   46.0396   50.6206 H   0  0  0  0  0  0  0  0  0  0  0  0
   11.3328   46.7488   52.2982 H   0  0  0  0  0  0  0  0  0  0  0  0
   10.6192   47.4235   54.5928 H   0  0  0  0  0  0  0  0  0  0  0  0
    8.2056   47.3867   55.2167 H   0  0  0  0  0  0  0  0  0  0  0  0
    6.1240   47.5370   55.5920 H   0  0  0  0  0  0  0  0  0  0  0  0
  1  2  2  0
  2  3  1  0
  3  4  1  0
  4  5  1  0
  5  6  2  0
  6  7  1  0
  7  8  2  0
  8  9  1  0
  9 10  2  0
  4 11  1  0
 11 12  1  0
 12 13  1  0
  2 14  1  0
 14 15  1  0
 15 16  2  0
 16 17  1  0
 17 18  2  0
 18 19  1  0
 19 20  2  0
 20 21  1  0
 21 22  2  0
 16 23  1  0
 23 24  1  0
 10  5  1  0
 13 11  1  0
 24 14  2  0
 22 17  1  0
  3 25  1  0
  4 26  1  6
  6 27  1  0
  7 28  1  0
  8 29  1  0
 10 30  1  0
 11 31  1  0
 12 32  1  0
 12 33  1  0
 13 34  1  0
 13 35  1  0
 15 36  1  0
 18 37  1  0
 19 38  1  0
 20 39  1  0
 21 40  1  0
 22 41  1  0
 23 42  1  0
M  END
>  <meeko>  (1) 
{"is_sidechain": [false], "free_energy": -8.426, "intermolecular_energy": -10.889, "internal_energy": -0.874}

$$$$
ligand_77_conformer_5_docked
     RDKit          3D

 42 45  0  0  0  0  0  0  0  0999 V2000
    3.9970   46.7960   51.7460 O   0  0  0  0  0  0  0  0  0  0  0  0
    4.4870   46.1080   52.6820 C   0  0  0  0  0  0  0  0  0  0  0  0
    5.8860   45.7760   52.6690 N   0  0  0  0  0  0  0  0  0  0  0  0
    6.7640   46.1640   51.5580 C   0  0  2  0  0  0  0  0  0  0  0  0
    6.9670   44.9950   50.6220 C   0  0  0  0  0  0  0  0  0  0  0  0
    5.9460   44.0510   50.4280 C   0  0  0  0  0  0  0  0  0  0  0  0
    6.1350   42.9860   49.5470 C   0  0  0  0  0  0  0  0  0  0  0  0
    7.3420   42.8750   48.8550 C   0  0  0  0  0  0  0  0  0  0  0  0
    8.3200   43.8020   49.0400 N   0  0  0  0  0  0  0  0  0  0  0  0
    8.1610   44.8480   49.8950 C   0  0  0  0  0  0  0  0  0  0  0  0
    8.1310   46.6210   52.1000 C   0  0  0  0  0  0  0  0  0  0  0  0
    8.0790   47.4950   53.3440 C   0  0  0  0  0  0  0  0  0  0  0  0
    8.4140   48.1120   51.9950 C   0  0  0  0  0  0  0  0  0  0  0  0
    3.6030   45.6580   53.7720 C   0  0  0  0  0  0  0  0  0  0  0  0
    2.2200   45.5860   53.7500 C   0  0  0  0  0  0  0  0  0  0  0  0
    1.8820   45.1110   55.0050 C   0  0  0  0  0  0  0  0  0  0  0  0
    0.5110   44.8500   55.5110 C   0  0  0  0  0  0  0  0  0  0  0  0
    0.1120   45.3170   56.7780 C   0  0  0  0  0  0  0  0  0  0  0  0
   -1.1810   45.0690   57.2500 C   0  0  0  0  0  0  0  0  0  0  0  0
   -2.0890   44.3540   56.4670 C   0  0  0  0  0  0  0  0  0  0  0  0
   -1.7060   43.8840   55.2100 C   0  0  0  0  0  0  0  0  0  0  0  0
   -0.4150   44.1280   54.7310 C   0  0  0  0  0  0  0  0  0  0  0  0
    3.0140   44.9230   55.7130 N   0  0  0  0  0  0  0  0  0  0  0  0
    4.0600   45.2550   54.9730 N   0  0  0  0  0  0  0  0  0  0  0  0
    6.2940   45.2510   53.4730 H   0  0  0  0  0  0  0  0  0  0  0  0
    6.2900   46.9923   51.0110 H   0  0  0  0  0  0  0  0  0  0  0  0
    4.9951   44.1514   50.9718 H   0  0  0  0  0  0  0  0  0  0  0  0
    5.3399   42.2404   49.3990 H   0  0  0  0  0  0  0  0  0  0  0  0
    7.5024   42.0377   48.1599 H   0  0  0  0  0  0  0  0  0  0  0  0
    8.9707   45.5823   50.0181 H   0  0  0  0  0  0  0  0  0  0  0  0
    8.6669   45.7049   51.8110 H   0  0  0  0  0  0  0  0  0  0  0  0
    7.1132   47.7123   53.8235 H   0  0  0  0  0  0  0  0  0  0  0  0
    8.5641   47.4727   54.3310 H   0  0  0  0  0  0  0  0  0  0  0  0
    7.6905   48.7755   51.4988 H   0  0  0  0  0  0  0  0  0  0  0  0
    9.2417   48.7208   51.6022 H   0  0  0  0  0  0  0  0  0  0  0  0
    1.5438   45.8471   52.9227 H   0  0  0  0  0  0  0  0  0  0  0  0
    0.8221   45.8808   57.4009 H   0  0  0  0  0  0  0  0  0  0  0  0
   -1.4833   45.4384   58.2410 H   0  0  0  0  0  0  0  0  0  0  0  0
   -3.1055   44.1612   56.8405 H   0  0  0  0  0  0  0  0  0  0  0  0
   -2.4218   43.3199   54.5941 H   0  0  0  0  0  0  0  0  0  0  0  0
   -0.1202   43.7542   53.7393 H   0  0  0  0  0  0  0  0  0  0  0  0
    3.0910   44.5940   56.6990 H   0  0  0  0  0  0  0  0  0  0  0  0
  1  2  2  0
  2  3  1  0
  3  4  1  0
  4  5  1  0
  5  6  2  0
  6  7  1  0
  7  8  2  0
  8  9  1  0
  9 10  2  0
  4 11  1  0
 11 12  1  0
 12 13  1  0
  2 14  1  0
 14 15  1  0
 15 16  2  0
 16 17  1  0
 17 18  2  0
 18 19  1  0
 19 20  2  0
 20 21  1  0
 21 22  2  0
 16 23  1  0
 23 24  1  0
 10  5  1  0
 13 11  1  0
 24 14  2  0
 22 17  1  0
  3 25  1  0
  4 26  1  6
  6 27  1  0
  7 28  1  0
  8 29  1  0
 10 30  1  0
 11 31  1  0
 12 32  1  0
 12 33  1  0
 13 34  1  0
 13 35  1  0
 15 36  1  0
 18 37  1  0
 19 38  1  0
 20 39  1  0
 21 40  1  0
 22 41  1  0
 23 42  1  0
M  END
>  <meeko>  (2) 
{"is_sidechain": [false], "free_energy": -8.377, "intermolecular_energy": -11.051, "internal_energy": -0.648}

$$$$
ligand_77_conformer_5_docked
     RDKit          3D

 42 45  0  0  0  0  0  0  0  0999 V2000
    4.6440   43.4750   52.6560 O   0  0  0  0  0  0  0  0  0  0  0  0
    4.3510   44.6900   52.8190 C   0  0  0  0  0  0  0  0  0  0  0  0
    5.3500   45.7010   52.6030 N   0  0  0  0  0  0  0  0  0  0  0  0
    6.7340   45.3610   52.2540 C   0  0  2  0  0  0  0  0  0  0  0  0
    7.6970   46.1920   53.0710 C   0  0  0  0  0  0  0  0  0  0  0  0
    9.0180   46.3850   52.6360 C   0  0  0  0  0  0  0  0  0  0  0  0
    9.8950   47.1690   53.3860 C   0  0  0  0  0  0  0  0  0  0  0  0
    9.4430   47.7660   54.5640 C   0  0  0  0  0  0  0  0  0  0  0  0
    8.1580   47.5830   54.9710 N   0  0  0  0  0  0  0  0  0  0  0  0
    7.2850   46.8220   54.2580 C   0  0  0  0  0  0  0  0  0  0  0  0
    6.9820   45.6260   50.7570 C   0  0  0  0  0  0  0  0  0  0  0  0
    6.1900   44.7470   49.8010 C   0  0  0  0  0  0  0  0  0  0  0  0
    7.6790   44.5070   49.9980 C   0  0  0  0  0  0  0  0  0  0  0  0
    2.9810   45.0420   53.2310 C   0  0  0  0  0  0  0  0  0  0  0  0
    2.2550   44.4900   54.2740 C   0  0  0  0  0  0  0  0  0  0  0  0
    1.0420   45.1570   54.2370 C   0  0  0  0  0  0  0  0  0  0  0  0
   -0.1110   44.9430   55.1470 C   0  0  0  0  0  0  0  0  0  0  0  0
   -0.2350   45.6870   56.3360 C   0  0  0  0  0  0  0  0  0  0  0  0
   -1.3220   45.4820   57.1910 C   0  0  0  0  0  0  0  0  0  0  0  0
   -2.2980   44.5350   56.8720 C   0  0  0  0  0  0  0  0  0  0  0  0
   -2.1860   43.7900   55.6960 C   0  0  0  0  0  0  0  0  0  0  0  0
   -1.1020   43.9890   54.8370 C   0  0  0  0  0  0  0  0  0  0  0  0
    1.0700   46.0450   53.2230 N   0  0  0  0  0  0  0  0  0  0  0  0
    2.2410   45.9790   52.6080 N   0  0  0  0  0  0  0  0  0  0  0  0
    5.0860   46.7070   52.6900 H   0  0  0  0  0  0  0  0  0  0  0  0
    6.8964   44.2948   52.4704 H   0  0  0  0  0  0  0  0  0  0  0  0
    9.3621   45.9170   51.7019 H   0  0  0  0  0  0  0  0  0  0  0  0
   10.9329   47.3153   53.0522 H   0  0  0  0  0  0  0  0  0  0  0  0
   10.1265   48.3850   55.1637 H   0  0  0  0  0  0  0  0  0  0  0  0
    6.2509   46.6989   54.6122 H   0  0  0  0  0  0  0  0  0  0  0  0
    7.1448   46.7080   50.8703 H   0  0  0  0  0  0  0  0  0  0  0  0
    5.4597   44.0249   50.1949 H   0  0  0  0  0  0  0  0  0  0  0  0
    5.5400   44.9309   48.9329 H   0  0  0  0  0  0  0  0  0  0  0  0
    8.0255   43.6113   50.5344 H   0  0  0  0  0  0  0  0  0  0  0  0
    8.5518   44.4454   49.3314 H   0  0  0  0  0  0  0  0  0  0  0  0
    2.5705   43.7012   54.9727 H   0  0  0  0  0  0  0  0  0  0  0  0
    0.5291   46.4351   56.5941 H   0  0  0  0  0  0  0  0  0  0  0  0
   -1.4089   46.0682   58.1177 H   0  0  0  0  0  0  0  0  0  0  0  0
   -3.1530   44.3763   57.5456 H   0  0  0  0  0  0  0  0  0  0  0  0
   -2.9541   43.0437   55.4450 H   0  0  0  0  0  0  0  0  0  0  0  0
   -1.0212   43.3976   53.9130 H   0  0  0  0  0  0  0  0  0  0  0  0
    0.3020   46.6830   52.9240 H   0  0  0  0  0  0  0  0  0  0  0  0
  1  2  2  0
  2  3  1  0
  3  4  1  0
  4  5  1  0
  5  6  2  0
  6  7  1  0
  7  8  2  0
  8  9  1  0
  9 10  2  0
  4 11  1  0
 11 12  1  0
 12 13  1  0
  2 14  1  0
 14 15  1  0
 15 16  2  0
 16 17  1  0
 17 18  2  0
 18 19  1  0
 19 20  2  0
 20 21  1  0
 21 22  2  0
 16 23  1  0
 23 24  1  0
 10  5  1  0
 13 11  1  0
 24 14  2  0
 22 17  1  0
  3 25  1  0
  4 26  1  6
  6 27  1  0
  7 28  1  0
  8 29  1  0
 10 30  1  0
 11 31  1  0
 12 32  1  0
 12 33  1  0
 13 34  1  0
 13 35  1  0
 15 36  1  0
 18 37  1  0
 19 38  1  0
 20 39  1  0
 21 40  1  0
 22 41  1  0
 23 42  1  0
M  END
>  <meeko>  (3) 
{"is_sidechain": [false], "free_energy": -7.979, "intermolecular_energy": -10.496, "internal_energy": -0.689}

$$$$
ligand_77_conformer_5_docked
     RDKit          3D

 42 45  0  0  0  0  0  0  0  0999 V2000
    2.5660   42.8810   52.8640 O   0  0  0  0  0  0  0  0  0  0  0  0
    2.7730   44.1050   53.0850 C   0  0  0  0  0  0  0  0  0  0  0  0
    1.7970   44.8750   53.8070 N   0  0  0  0  0  0  0  0  0  0  0  0
    0.5240   44.2950   54.2490 C   0  0  2  0  0  0  0  0  0  0  0  0
   -0.4020   44.1090   53.0680 C   0  0  0  0  0  0  0  0  0  0  0  0
   -0.9010   42.8360   52.7490 C   0  0  0  0  0  0  0  0  0  0  0  0
   -1.7710   42.6770   51.6690 C   0  0  0  0  0  0  0  0  0  0  0  0
   -2.1450   43.7930   50.9200 C   0  0  0  0  0  0  0  0  0  0  0  0
   -1.6660   45.0240   51.2460 N   0  0  0  0  0  0  0  0  0  0  0  0
   -0.8160   45.2050   52.2920 C   0  0  0  0  0  0  0  0  0  0  0  0
   -0.1500   45.2210   55.2790 C   0  0  0  0  0  0  0  0  0  0  0  0
    0.5300   45.2870   56.6380 C   0  0  0  0  0  0  0  0  0  0  0  0
   -0.7750   44.5240   56.4780 C   0  0  0  0  0  0  0  0  0  0  0  0
    4.0200   44.7160   52.5920 C   0  0  0  0  0  0  0  0  0  0  0  0
    5.1260   45.0790   53.3430 C   0  0  0  0  0  0  0  0  0  0  0  0
    6.0110   45.6030   52.4170 C   0  0  0  0  0  0  0  0  0  0  0  0
    7.3640   46.1470   52.6980 C   0  0  0  0  0  0  0  0  0  0  0  0
    8.3520   46.1690   51.6950 C   0  0  0  0  0  0  0  0  0  0  0  0
    9.6250   46.6810   51.9650 C   0  0  0  0  0  0  0  0  0  0  0  0
    9.9280   47.1760   53.2350 C   0  0  0  0  0  0  0  0  0  0  0  0
    8.9580   47.1600   54.2380 C   0  0  0  0  0  0  0  0  0  0  0  0
    7.6830   46.6490   53.9770 C   0  0  0  0  0  0  0  0  0  0  0  0
    5.4420   45.5450   51.1960 N   0  0  0  0  0  0  0  0  0  0  0  0
    4.2350   45.0110   51.2950 N   0  0  0  0  0  0  0  0  0  0  0  0
    1.9990   45.8750   54.0310 H   0  0  0  0  0  0  0  0  0  0  0  0
    0.7278   43.3180   54.7116 H   0  0  0  0  0  0  0  0  0  0  0  0
   -0.6062   41.9635   53.3505 H   0  0  0  0  0  0  0  0  0  0  0  0
   -2.1583   41.6804   51.4107 H   0  0  0  0  0  0  0  0  0  0  0  0
   -2.8277   43.6776   50.0652 H   0  0  0  0  0  0  0  0  0  0  0  0
   -0.4507   46.2145   52.5319 H   0  0  0  0  0  0  0  0  0  0  0  0
   -0.4949   45.9607   54.5415 H   0  0  0  0  0  0  0  0  0  0  0  0
    1.4690   44.7405   56.8102 H   0  0  0  0  0  0  0  0  0  0  0  0
    0.8815   46.0977   57.2931 H   0  0  0  0  0  0  0  0  0  0  0  0
   -0.7802   43.4255   56.5344 H   0  0  0  0  0  0  0  0  0  0  0  0
   -1.7587   44.5540   56.9694 H   0  0  0  0  0  0  0  0  0  0  0  0
    5.2684   44.9745   54.4287 H   0  0  0  0  0  0  0  0  0  0  0  0
    8.1209   45.7807   50.6921 H   0  0  0  0  0  0  0  0  0  0  0  0
   10.3899   46.6938   51.1746 H   0  0  0  0  0  0  0  0  0  0  0  0
   10.9302   47.5781   53.4446 H   0  0  0  0  0  0  0  0  0  0  0  0
    9.1974   47.5509   55.2379 H   0  0  0  0  0  0  0  0  0  0  0  0
    6.9244   46.6384   54.7735 H   0  0  0  0  0  0  0  0  0  0  0  0
    5.8470   45.8810   50.2970 H   0  0  0  0  0  0  0  0  0  0  0  0
  1  2  2  0
  2  3  1  0
  3  4  1  0
  4  5  1  0
  5  6  2  0
  6  7  1  0
  7  8  2  0
  8  9  1  0
  9 10  2  0
  4 11  1  0
 11 12  1  0
 12 13  1  0
  2 14  1  0
 14 15  1  0
 15 16  2  0
 16 17  1  0
 17 18  2  0
 18 19  1  0
 19 20  2  0
 20 21  1  0
 21 22  2  0
 16 23  1  0
 23 24  1  0
 10  5  1  0
 13 11  1  0
 24 14  2  0
 22 17  1  0
  3 25  1  0
  4 26  1  1
  6 27  1  0
  7 28  1  0
  8 29  1  0
 10 30  1  0
 11 31  1  0
 12 32  1  0
 12 33  1  0
 13 34  1  0
 13 35  1  0
 15 36  1  0
 18 37  1  0
 19 38  1  0
 20 39  1  0
 21 40  1  0
 22 41  1  0
 23 42  1  0
M  END
>  <meeko>  (4) 
{"is_sidechain": [false], "free_energy": -7.561, "intermolecular_energy": -10.019, "internal_energy": -0.627}

$$$$
ligand_77_conformer_5_docked
     RDKit          3D

 42 45  0  0  0  0  0  0  0  0999 V2000
    6.8620   41.7350   50.0780 O   0  0  0  0  0  0  0  0  0  0  0  0
    5.9560   42.3170   49.4220 C   0  0  0  0  0  0  0  0  0  0  0  0
    5.5670   43.6550   49.7730 N   0  0  0  0  0  0  0  0  0  0  0  0
    6.1510   44.3560   50.9230 C   0  0  2  0  0  0  0  0  0  0  0  0
    5.0620   45.0030   51.7480 C   0  0  0  0  0  0  0  0  0  0  0  0
    4.2820   46.0390   51.2110 C   0  0  0  0  0  0  0  0  0  0  0  0
    3.2660   46.6160   51.9740 C   0  0  0  0  0  0  0  0  0  0  0  0
    3.0290   46.1480   53.2670 C   0  0  0  0  0  0  0  0  0  0  0  0
    3.7820   45.1360   53.7730 N   0  0  0  0  0  0  0  0  0  0  0  0
    4.7800   44.5570   53.0510 C   0  0  0  0  0  0  0  0  0  0  0  0
    7.1300   45.4420   50.4380 C   0  0  0  0  0  0  0  0  0  0  0  0
    8.5050   44.9400   50.0230 C   0  0  0  0  0  0  0  0  0  0  0  0
    8.3330   45.6900   51.3350 C   0  0  0  0  0  0  0  0  0  0  0  0
    5.3170   41.6010   48.3040 C   0  0  0  0  0  0  0  0  0  0  0  0
    4.2130   40.7660   48.3700 C   0  0  0  0  0  0  0  0  0  0  0  0
    4.0200   40.3520   47.0630 C   0  0  0  0  0  0  0  0  0  0  0  0
    2.9590   39.4340   46.5760 C   0  0  0  0  0  0  0  0  0  0  0  0
    2.1290   39.8040   45.5000 C   0  0  0  0  0  0  0  0  0  0  0  0
    1.1300   38.9370   45.0450 C   0  0  0  0  0  0  0  0  0  0  0  0
    0.9470   37.6950   45.6540 C   0  0  0  0  0  0  0  0  0  0  0  0
    1.7630   37.3160   46.7220 C   0  0  0  0  0  0  0  0  0  0  0  0
    2.7630   38.1780   47.1840 C   0  0  0  0  0  0  0  0  0  0  0  0
    4.9660   40.9180   46.2870 N   0  0  0  0  0  0  0  0  0  0  0  0
    5.7560   41.6740   47.0330 N   0  0  0  0  0  0  0  0  0  0  0  0
    4.8530   44.1490   49.1940 H   0  0  0  0  0  0  0  0  0  0  0  0
    6.6907   43.6231   51.5407 H   0  0  0  0  0  0  0  0  0  0  0  0
    4.4717   46.3963   50.1881 H   0  0  0  0  0  0  0  0  0  0  0  0
    2.6570   47.4330   51.5596 H   0  0  0  0  0  0  0  0  0  0  0  0
    2.2322   46.5984   53.8772 H   0  0  0  0  0  0  0  0  0  0  0  0
    5.3681   43.7370   53.4887 H   0  0  0  0  0  0  0  0  0  0  0  0
    6.3586   46.0770   49.9778 H   0  0  0  0  0  0  0  0  0  0  0  0
    8.7221   43.8617   50.0302 H   0  0  0  0  0  0  0  0  0  0  0  0
    9.1423   45.0623   49.1348 H   0  0  0  0  0  0  0  0  0  0  0  0
    8.4259   45.1540   52.2911 H   0  0  0  0  0  0  0  0  0  0  0  0
    8.7946   46.5794   51.7886 H   0  0  0  0  0  0  0  0  0  0  0  0
    3.6241   40.4941   49.2584 H   0  0  0  0  0  0  0  0  0  0  0  0
    2.2672   40.7812   45.0142 H   0  0  0  0  0  0  0  0  0  0  0  0
    0.4865   39.2354   44.2042 H   0  0  0  0  0  0  0  0  0  0  0  0
    0.1610   37.0153   45.2933 H   0  0  0  0  0  0  0  0  0  0  0  0
    1.6189   36.3365   47.2014 H   0  0  0  0  0  0  0  0  0  0  0  0
    3.4004   37.8735   48.0272 H   0  0  0  0  0  0  0  0  0  0  0  0
    5.1010   40.7860   45.2620 H   0  0  0  0  0  0  0  0  0  0  0  0
  1  2  2  0
  2  3  1  0
  3  4  1  0
  4  5  1  0
  5  6  2  0
  6  7  1  0
  7  8  2  0
  8  9  1  0
  9 10  2  0
  4 11  1  0
 11 12  1  0
 12 13  1  0
  2 14  1  0
 14 15  1  0
 15 16  2  0
 16 17  1  0
 17 18  2  0
 18 19  1  0
 19 20  2  0
 20 21  1  0
 21 22  2  0
 16 23  1  0
 23 24  1  0
 10  5  1  0
 13 11  1  0
 24 14  2  0
 22 17  1  0
  3 25  1  0
  4 26  1  1
  6 27  1  0
  7 28  1  0
  8 29  1  0
 10 30  1  0
 11 31  1  0
 12 32  1  0
 12 33  1  0
 13 34  1  0
 13 35  1  0
 15 36  1  0
 18 37  1  0
 19 38  1  0
 20 39  1  0
 21 40  1  0
 22 41  1  0
 23 42  1  0
M  END
>  <meeko>  (5) 
{"is_sidechain": [false], "free_energy": -6.838, "intermolecular_energy": -9.015, "internal_energy": -0.696}

$$$$
