MODEL 1
REMARK VINA RESULT:    -9.568      0.000      0.000
REMARK INTER + INTRA:         -14.326
REMARK INTER:                 -12.924
REMARK INTRA:                  -1.402
REMARK UNBOUND:                -1.402
REMARK SMILES CCc1noc(-c2ccc(C)c(NCc3ccc(C(=O)N4CCCC4)cc3)c2)n1
REMARK SMILES IDX 7 1 8 2 9 3 10 4 11 5 12 6 28 7 6 8 3 9 4 10 29 11 5 12 2 13
REMARK SMILES IDX 1 14 13 15 14 17 15 18 16 19 27 20 17 21 26 22 18 23 19 24
REMARK SMILES IDX 20 25 21 26 22 27 25 28 23 29 24 30
REMARK H PARENT 13 16
ROOT
ATOM      1  C   UNL     1       2.422  42.816  51.500  1.00  0.00     0.042 A 
ATOM      2  C   UNL     1       1.184  43.055  50.890  1.00  0.00     0.014 A 
ATOM      3  C   UNL     1       0.151  43.662  51.605  1.00  0.00     0.006 A 
ATOM      4  C   UNL     1       0.331  44.035  52.946  1.00  0.00    -0.028 A 
ATOM      5  C   UNL     1      -0.818  44.660  53.692  1.00  0.00     0.046 C 
ATOM      6  C   UNL     1       1.578  43.803  53.574  1.00  0.00     0.038 A 
ATOM      7  C   UNL     1       2.615  43.200  52.835  1.00  0.00     0.039 A 
ENDROOT
BRANCH   1   8
ATOM      8  C   UNL     1       3.515  42.164  50.750  1.00  0.00     0.257 A 
ATOM      9  C   UNL     1       5.384  41.646  49.983  1.00  0.00     0.172 A 
ATOM     10  N   UNL     1       4.488  40.822  49.405  1.00  0.00    -0.062 NA
ATOM     11  N   UNL     1       4.812  42.521  50.835  1.00  0.00    -0.192 NA
ATOM     12  O   UNL     1       3.345  41.171  49.911  1.00  0.00    -0.334 OA
BRANCH   9  13
ATOM     13  C   UNL     1       6.843  41.643  49.656  1.00  0.00     0.078 C 
ATOM     14  C   UNL     1       7.321  43.052  49.323  1.00  0.00     0.012 C 
ENDBRANCH   9  13
ENDBRANCH   1   8
BRANCH   6  15
ATOM     15  N   UNL     1       1.786  44.176  54.954  1.00  0.00    -0.381 N 
ATOM     16  H   UNL     1       1.812  43.434  55.689  1.00  0.00     0.160 HD
BRANCH  15  17
ATOM     17  C   UNL     1       2.080  45.542  55.394  1.00  0.00     0.148 C 
BRANCH  17  18
ATOM     18  C   UNL     1       3.511  45.901  55.089  1.00  0.00    -0.029 A 
ATOM     19  C   UNL     1       3.810  47.113  54.449  1.00  0.00     0.006 A 
ATOM     20  C   UNL     1       4.557  45.037  55.449  1.00  0.00     0.006 A 
ATOM     21  C   UNL     1       5.137  47.469  54.196  1.00  0.00     0.014 A 
ATOM     22  C   UNL     1       5.885  45.393  55.195  1.00  0.00     0.014 A 
ATOM     23  C   UNL     1       6.186  46.621  54.587  1.00  0.00     0.040 A 
BRANCH  23  24
ATOM     24  C   UNL     1       7.592  46.991  54.329  1.00  0.00     0.253 C 
ATOM     25  O   UNL     1       8.165  47.791  55.118  1.00  0.00    -0.269 OA
ATOM     26  N   UNL     1       8.310  46.481  53.191  1.00  0.00    -0.339 N 
ATOM     27  C   UNL     1       7.671  46.008  51.973  1.00  0.00     0.120 C 
ATOM     28  C   UNL     1       9.747  46.637  53.041  1.00  0.00     0.120 C 
ATOM     29  C   UNL     1       8.764  46.004  50.912  1.00  0.00     0.023 C 
ATOM     30  C   UNL     1      10.082  46.045  51.679  1.00  0.00     0.023 C 
ENDBRANCH  23  24
ENDBRANCH  17  18
ENDBRANCH  15  17
ENDBRANCH   6  15
TORSDOF 6
ENDMDL
MODEL 2
REMARK VINA RESULT:    -8.660      3.906      8.757
REMARK INTER + INTRA:         -13.099
REMARK INTER:                 -12.074
REMARK INTRA:                  -1.025
REMARK UNBOUND:                -1.402
REMARK SMILES CCc1noc(-c2ccc(C)c(NCc3ccc(C(=O)N4CCCC4)cc3)c2)n1
REMARK SMILES IDX 7 1 8 2 9 3 10 4 11 5 12 6 28 7 6 8 3 9 4 10 29 11 5 12 2 13
REMARK SMILES IDX 1 14 13 15 14 17 15 18 16 19 27 20 17 21 26 22 18 23 19 24
REMARK SMILES IDX 20 25 21 26 22 27 25 28 23 29 24 30
REMARK H PARENT 13 16
ROOT
ATOM      1  C   UNL     1       5.180  45.344  52.021  1.00  0.00     0.042 A 
ATOM      2  C   UNL     1       3.840  45.742  52.110  1.00  0.00     0.014 A 
ATOM      3  C   UNL     1       2.818  44.863  51.750  1.00  0.00     0.006 A 
ATOM      4  C   UNL     1       3.114  43.572  51.285  1.00  0.00    -0.028 A 
ATOM      5  C   UNL     1       1.984  42.664  50.879  1.00  0.00     0.046 C 
ATOM      6  C   UNL     1       4.463  43.155  51.194  1.00  0.00     0.038 A 
ATOM      7  C   UNL     1       5.483  44.050  51.573  1.00  0.00     0.039 A 
ENDROOT
BRANCH   1   8
ATOM      8  C   UNL     1       6.266  46.275  52.391  1.00  0.00     0.257 A 
ATOM      9  C   UNL     1       8.134  47.117  52.778  1.00  0.00     0.172 A 
ATOM     10  N   UNL     1       7.218  48.066  53.053  1.00  0.00    -0.062 NA
ATOM     11  N   UNL     1       7.577  45.961  52.364  1.00  0.00    -0.192 NA
ATOM     12  O   UNL     1       6.076  47.507  52.795  1.00  0.00    -0.334 OA
BRANCH   9  13
ATOM     13  C   UNL     1       9.604  47.300  52.983  1.00  0.00     0.078 C 
ATOM     14  C   UNL     1       9.954  47.209  54.463  1.00  0.00     0.012 C 
ENDBRANCH   9  13
ENDBRANCH   1   8
BRANCH   6  15
ATOM     15  N   UNL     1       4.793  41.832  50.717  1.00  0.00    -0.381 N 
ATOM     16  H   UNL     1       4.232  41.013  51.042  1.00  0.00     0.160 HD
BRANCH  15  17
ATOM     17  C   UNL     1       5.813  41.563  49.701  1.00  0.00     0.148 C 
BRANCH  17  18
ATOM     18  C   UNL     1       5.171  41.249  48.375  1.00  0.00    -0.029 A 
ATOM     19  C   UNL     1       4.028  40.437  48.324  1.00  0.00     0.006 A 
ATOM     20  C   UNL     1       5.696  41.771  47.184  1.00  0.00     0.006 A 
ATOM     21  C   UNL     1       3.404  40.172  47.102  1.00  0.00     0.014 A 
ATOM     22  C   UNL     1       5.074  41.505  45.961  1.00  0.00     0.014 A 
ATOM     23  C   UNL     1       3.911  40.721  45.913  1.00  0.00     0.040 A 
BRANCH  23  24
ATOM     24  C   UNL     1       3.256  40.451  44.618  1.00  0.00     0.253 C 
ATOM     25  O   UNL     1       3.849  39.721  43.776  1.00  0.00    -0.269 OA
ATOM     26  N   UNL     1       1.974  41.016  44.288  1.00  0.00    -0.339 N 
ATOM     27  C   UNL     1       1.442  42.229  44.889  1.00  0.00     0.120 C 
ATOM     28  C   UNL     1       1.205  40.584  43.133  1.00  0.00     0.120 C 
ATOM     29  C   UNL     1       0.333  42.697  43.956  1.00  0.00     0.023 C 
ATOM     30  C   UNL     1      -0.022  41.486  43.099  1.00  0.00     0.023 C 
ENDBRANCH  23  24
ENDBRANCH  17  18
ENDBRANCH  15  17
ENDBRANCH   6  15
TORSDOF 6
ENDMDL
MODEL 3
REMARK VINA RESULT:    -8.590      2.248      6.934
REMARK INTER + INTRA:         -13.005
REMARK INTER:                 -11.884
REMARK INTRA:                  -1.121
REMARK UNBOUND:                -1.402
REMARK SMILES CCc1noc(-c2ccc(C)c(NCc3ccc(C(=O)N4CCCC4)cc3)c2)n1
REMARK SMILES IDX 7 1 8 2 9 3 10 4 11 5 12 6 28 7 6 8 3 9 4 10 29 11 5 12 2 13
REMARK SMILES IDX 1 14 13 15 14 17 15 18 16 19 27 20 17 21 26 22 18 23 19 24
REMARK SMILES IDX 20 25 21 26 22 27 25 28 23 29 24 30
REMARK H PARENT 13 16
ROOT
ATOM      1  C   UNL     1       8.462  45.658  51.606  1.00  0.00     0.042 A 
ATOM      2  C   UNL     1       9.675  46.340  51.764  1.00  0.00     0.014 A 
ATOM      3  C   UNL     1       9.876  47.176  52.862  1.00  0.00     0.006 A 
ATOM      4  C   UNL     1       8.866  47.354  53.822  1.00  0.00    -0.028 A 
ATOM      5  C   UNL     1       9.111  48.288  54.977  1.00  0.00     0.046 C 
ATOM      6  C   UNL     1       7.637  46.667  53.677  1.00  0.00     0.038 A 
ATOM      7  C   UNL     1       7.455  45.817  52.569  1.00  0.00     0.039 A 
ENDROOT
BRANCH   1   8
ATOM      8  C   UNL     1       8.241  44.779  50.439  1.00  0.00     0.257 A 
ATOM      9  C   UNL     1       7.375  43.536  49.006  1.00  0.00     0.172 A 
ATOM     10  N   UNL     1       8.677  43.650  48.681  1.00  0.00    -0.062 NA
ATOM     11  N   UNL     1       7.054  44.226  50.119  1.00  0.00    -0.192 NA
ATOM     12  O   UNL     1       9.177  44.432  49.589  1.00  0.00    -0.334 OA
BRANCH   9  13
ATOM     13  C   UNL     1       6.408  42.675  48.259  1.00  0.00     0.078 C 
ATOM     14  C   UNL     1       5.886  41.555  49.152  1.00  0.00     0.012 C 
ENDBRANCH   9  13
ENDBRANCH   1   8
BRANCH   6  15
ATOM     15  N   UNL     1       6.582  46.836  54.650  1.00  0.00    -0.381 N 
ATOM     16  H   UNL     1       6.731  46.512  55.631  1.00  0.00     0.160 HD
BRANCH  15  17
ATOM     17  C   UNL     1       5.330  47.545  54.378  1.00  0.00     0.148 C 
BRANCH  17  18
ATOM     18  C   UNL     1       4.355  46.644  53.665  1.00  0.00    -0.029 A 
ATOM     19  C   UNL     1       3.774  47.055  52.456  1.00  0.00     0.006 A 
ATOM     20  C   UNL     1       4.027  45.385  54.192  1.00  0.00     0.006 A 
ATOM     21  C   UNL     1       2.898  46.209  51.770  1.00  0.00     0.014 A 
ATOM     22  C   UNL     1       3.150  44.540  53.507  1.00  0.00     0.014 A 
ATOM     23  C   UNL     1       2.596  44.937  52.280  1.00  0.00     0.040 A 
BRANCH  23  24
ATOM     24  C   UNL     1       1.675  44.034  51.560  1.00  0.00     0.253 C 
ATOM     25  O   UNL     1       2.155  43.199  50.745  1.00  0.00    -0.269 OA
ATOM     26  N   UNL     1       0.250  44.102  51.749  1.00  0.00    -0.339 N 
ATOM     27  C   UNL     1      -0.452  45.288  52.213  1.00  0.00     0.120 C 
ATOM     28  C   UNL     1      -0.654  43.084  51.241  1.00  0.00     0.120 C 
ATOM     29  C   UNL     1      -1.911  45.075  51.834  1.00  0.00     0.023 C 
ATOM     30  C   UNL     1      -2.055  43.579  51.573  1.00  0.00     0.023 C 
ENDBRANCH  23  24
ENDBRANCH  17  18
ENDBRANCH  15  17
ENDBRANCH   6  15
TORSDOF 6
ENDMDL
MODEL 4
REMARK VINA RESULT:    -8.519      3.234      6.463
REMARK INTER + INTRA:         -12.909
REMARK INTER:                 -12.199
REMARK INTRA:                  -0.710
REMARK UNBOUND:                -1.402
REMARK SMILES CCc1noc(-c2ccc(C)c(NCc3ccc(C(=O)N4CCCC4)cc3)c2)n1
REMARK SMILES IDX 7 1 8 2 9 3 10 4 11 5 12 6 28 7 6 8 3 9 4 10 29 11 5 12 2 13
REMARK SMILES IDX 1 14 13 15 14 17 15 18 16 19 27 20 17 21 26 22 18 23 19 24
REMARK SMILES IDX 20 25 21 26 22 27 25 28 23 29 24 30
REMARK H PARENT 13 16
ROOT
ATOM      1  C   UNL     1      -0.658  44.999  55.468  1.00  0.00     0.042 A 
ATOM      2  C   UNL     1      -1.965  44.571  55.204  1.00  0.00     0.014 A 
ATOM      3  C   UNL     1      -2.241  43.805  54.072  1.00  0.00     0.006 A 
ATOM      4  C   UNL     1      -1.219  43.457  53.175  1.00  0.00    -0.028 A 
ATOM      5  C   UNL     1      -1.563  42.653  51.950  1.00  0.00     0.046 C 
ATOM      6  C   UNL     1       0.108  43.878  53.431  1.00  0.00     0.038 A 
ATOM      7  C   UNL     1       0.373  44.642  54.585  1.00  0.00     0.039 A 
ENDROOT
BRANCH   1   8
ATOM      8  C   UNL     1      -0.361  45.820  56.659  1.00  0.00     0.257 A 
ATOM      9  C   UNL     1      -0.478  47.202  58.217  1.00  0.00     0.172 A 
ATOM     10  N   UNL     1       0.716  46.590  58.334  1.00  0.00    -0.062 NA
ATOM     11  N   UNL     1      -1.192  46.754  57.164  1.00  0.00    -0.192 NA
ATOM     12  O   UNL     1       0.747  45.738  57.355  1.00  0.00    -0.334 OA
BRANCH   9  13
ATOM     13  C   UNL     1      -0.930  48.312  59.111  1.00  0.00     0.078 C 
ATOM     14  C   UNL     1      -0.131  48.314  60.409  1.00  0.00     0.012 C 
ENDBRANCH   9  13
ENDBRANCH   1   8
BRANCH   6  15
ATOM     15  N   UNL     1       1.177  43.535  52.522  1.00  0.00    -0.381 N 
ATOM     16  H   UNL     1       1.722  42.658  52.677  1.00  0.00     0.160 HD
BRANCH  15  17
ATOM     17  C   UNL     1       1.486  44.291  51.306  1.00  0.00     0.148 C 
BRANCH  17  18
ATOM     18  C   UNL     1       2.962  44.581  51.223  1.00  0.00    -0.029 A 
ATOM     19  C   UNL     1       3.892  43.552  51.434  1.00  0.00     0.006 A 
ATOM     20  C   UNL     1       3.422  45.873  50.925  1.00  0.00     0.006 A 
ATOM     21  C   UNL     1       5.262  43.805  51.323  1.00  0.00     0.014 A 
ATOM     22  C   UNL     1       4.792  46.126  50.815  1.00  0.00     0.014 A 
ATOM     23  C   UNL     1       5.721  45.090  50.992  1.00  0.00     0.040 A 
BRANCH  23  24
ATOM     24  C   UNL     1       7.167  45.365  50.867  1.00  0.00     0.253 C 
ATOM     25  O   UNL     1       7.788  44.915  49.865  1.00  0.00    -0.269 OA
ATOM     26  N   UNL     1       7.882  46.111  51.868  1.00  0.00    -0.339 N 
ATOM     27  C   UNL     1       7.454  46.229  53.253  1.00  0.00     0.120 C 
ATOM     28  C   UNL     1       9.236  46.596  51.661  1.00  0.00     0.120 C 
ATOM     29  C   UNL     1       8.686  46.685  54.025  1.00  0.00     0.023 C 
ATOM     30  C   UNL     1       9.644  47.242  52.978  1.00  0.00     0.023 C 
ENDBRANCH  23  24
ENDBRANCH  17  18
ENDBRANCH  15  17
ENDBRANCH   6  15
TORSDOF 6
ENDMDL
MODEL 5
REMARK VINA RESULT:    -8.422      2.861      5.907
REMARK INTER + INTRA:         -12.779
REMARK INTER:                 -11.648
REMARK INTRA:                  -1.130
REMARK UNBOUND:                -1.402
REMARK SMILES CCc1noc(-c2ccc(C)c(NCc3ccc(C(=O)N4CCCC4)cc3)c2)n1
REMARK SMILES IDX 7 1 8 2 9 3 10 4 11 5 12 6 28 7 6 8 3 9 4 10 29 11 5 12 2 13
REMARK SMILES IDX 1 14 13 15 14 17 15 18 16 19 27 20 17 21 26 22 18 23 19 24
REMARK SMILES IDX 20 25 21 26 22 27 25 28 23 29 24 30
REMARK H PARENT 13 16
ROOT
ATOM      1  C   UNL     1      -0.589  44.800  55.083  1.00  0.00     0.042 A 
ATOM      2  C   UNL     1      -1.924  44.560  54.734  1.00  0.00     0.014 A 
ATOM      3  C   UNL     1      -2.234  43.851  53.574  1.00  0.00     0.006 A 
ATOM      4  C   UNL     1      -1.217  43.373  52.733  1.00  0.00    -0.028 A 
ATOM      5  C   UNL     1      -1.592  42.637  51.474  1.00  0.00     0.046 C 
ATOM      6  C   UNL     1       0.138  43.603  53.075  1.00  0.00     0.038 A 
ATOM      7  C   UNL     1       0.434  44.311  54.257  1.00  0.00     0.039 A 
ENDROOT
BRANCH   1   8
ATOM      8  C   UNL     1      -0.256  45.559  56.305  1.00  0.00     0.257 A 
ATOM      9  C   UNL     1      -0.324  46.862  57.932  1.00  0.00     0.172 A 
ATOM     10  N   UNL     1       0.872  46.243  57.983  1.00  0.00    -0.062 NA
ATOM     11  N   UNL     1      -1.069  46.468  56.879  1.00  0.00    -0.192 NA
ATOM     12  O   UNL     1       0.872  45.441  56.963  1.00  0.00    -0.334 OA
BRANCH   9  13
ATOM     13  C   UNL     1      -0.747  47.926  58.893  1.00  0.00     0.078 C 
ATOM     14  C   UNL     1      -2.006  48.626  58.397  1.00  0.00     0.012 C 
ENDBRANCH   9  13
ENDBRANCH   1   8
BRANCH   6  15
ATOM     15  N   UNL     1       1.202  43.123  52.225  1.00  0.00    -0.381 N 
ATOM     16  H   UNL     1       1.449  42.109  52.232  1.00  0.00     0.160 HD
BRANCH  15  17
ATOM     17  C   UNL     1       1.905  43.960  51.249  1.00  0.00     0.148 C 
BRANCH  17  18
ATOM     18  C   UNL     1       3.048  44.692  51.904  1.00  0.00    -0.029 A 
ATOM     19  C   UNL     1       3.214  46.068  51.691  1.00  0.00     0.006 A 
ATOM     20  C   UNL     1       3.947  44.012  52.740  1.00  0.00     0.006 A 
ATOM     21  C   UNL     1       4.250  46.760  52.325  1.00  0.00     0.014 A 
ATOM     22  C   UNL     1       4.983  44.704  53.374  1.00  0.00     0.014 A 
ATOM     23  C   UNL     1       5.129  46.087  53.187  1.00  0.00     0.040 A 
BRANCH  23  24
ATOM     24  C   UNL     1       6.223  46.812  53.866  1.00  0.00     0.253 C 
ATOM     25  O   UNL     1       5.944  47.555  54.847  1.00  0.00    -0.269 OA
ATOM     26  N   UNL     1       7.587  46.708  53.420  1.00  0.00    -0.339 N 
ATOM     27  C   UNL     1       7.973  46.345  52.065  1.00  0.00     0.120 C 
ATOM     28  C   UNL     1       8.704  47.214  54.200  1.00  0.00     0.120 C 
ATOM     29  C   UNL     1       9.421  46.795  51.918  1.00  0.00     0.023 C 
ATOM     30  C   UNL     1       9.939  46.987  53.339  1.00  0.00     0.023 C 
ENDBRANCH  23  24
ENDBRANCH  17  18
ENDBRANCH  15  17
ENDBRANCH   6  15
TORSDOF 6
ENDMDL
