ligand_31_conformer_5_docked
     RDKit          3D

 48 51  0  0  0  0  0  0  0  0999 V2000
    5.6110   42.9180   50.1390 C   0  0  0  0  0  0  0  0  0  0  0  0
    6.2770   43.8840   51.1190 C   0  0  0  0  0  0  0  0  0  0  0  0
    6.1360   45.3870   50.7600 C   0  0  2  0  0  0  0  0  0  0  0  0
    7.4840   46.0790   50.4770 C   0  0  0  0  0  0  0  0  0  0  0  0
    8.2050   46.4440   51.7340 C   0  0  0  0  0  0  0  0  0  0  0  0
    9.6090   46.4250   51.7780 C   0  0  0  0  0  0  0  0  0  0  0  0
   10.2800   46.7900   52.9480 C   0  0  0  0  0  0  0  0  0  0  0  0
    9.5560   47.1900   54.0720 C   0  0  0  0  0  0  0  0  0  0  0  0
    8.1600   47.2290   54.0280 C   0  0  0  0  0  0  0  0  0  0  0  0
    7.4760   46.8490   52.8620 C   0  0  0  0  0  0  0  0  0  0  0  0
    5.9720   46.9460   52.8180 C   0  0  0  0  0  0  0  0  0  0  0  0
    5.3350   46.1180   51.7710 N   0  0  0  0  0  0  0  0  0  0  0  0
    3.8810   46.0810   51.7630 C   0  0  0  0  0  0  0  0  0  0  0  0
    3.2570   46.7900   50.9230 O   0  0  0  0  0  0  0  0  0  0  0  0
    3.0700   45.1430   52.6440 C   0  0  1  0  0  0  0  0  0  0  0  0
    1.9880   45.9370   53.4210 C   0  0  0  0  0  0  0  0  0  0  0  0
    1.3500   45.1340   54.5650 C   0  0  0  0  0  0  0  0  0  0  0  0
    0.3610   44.1360   54.0470 C   0  0  0  0  0  0  0  0  0  0  0  0
   -0.9370   44.1070   54.4040 N   0  0  0  0  0  0  0  0  0  0  0  0
   -1.4910   43.0940   53.7510 N   0  0  0  0  0  0  0  0  0  0  0  0
   -0.5250   42.5220   53.0080 C   0  0  0  0  0  0  0  0  0  0  0  0
    0.6490   43.1580   53.1720 N   0  0  0  0  0  0  0  0  0  0  0  0
    1.9350   42.8370   52.5610 C   0  0  0  0  0  0  0  0  0  0  0  0
    2.4700   44.0290   51.7560 C   0  0  0  0  0  0  0  0  0  0  0  0
    5.0739   42.1390   50.6999 H   0  0  0  0  0  0  0  0  0  0  0  0
    4.9005   43.4698   49.5060 H   0  0  0  0  0  0  0  0  0  0  0  0
    6.3794   42.4502   49.5060 H   0  0  0  0  0  0  0  0  0  0  0  0
    5.8278   43.7269   52.1107 H   0  0  0  0  0  0  0  0  0  0  0  0
    7.3536   43.6607   51.0854 H   0  0  0  0  0  0  0  0  0  0  0  0
    5.5825   45.4217   49.8100 H   0  0  0  0  0  0  0  0  0  0  0  0
    8.1168   45.3962   49.8910 H   0  0  0  0  0  0  0  0  0  0  0  0
    7.2780   47.0071   49.9237 H   0  0  0  0  0  0  0  0  0  0  0  0
   10.1816   46.1220   50.8890 H   0  0  0  0  0  0  0  0  0  0  0  0
   11.3791   46.7621   52.9831 H   0  0  0  0  0  0  0  0  0  0  0  0
   10.0849   47.4749   54.9935 H   0  0  0  0  0  0  0  0  0  0  0  0
    7.5938   47.5591   54.9114 H   0  0  0  0  0  0  0  0  0  0  0  0
    5.5784   46.6278   53.7946 H   0  0  0  0  0  0  0  0  0  0  0  0
    5.7326   47.9925   52.5784 H   0  0  0  0  0  0  0  0  0  0  0  0
    3.7116   44.6693   53.4016 H   0  0  0  0  0  0  0  0  0  0  0  0
    2.4537   46.8390   53.8448 H   0  0  0  0  0  0  0  0  0  0  0  0
    1.1871   46.1806   52.7074 H   0  0  0  0  0  0  0  0  0  0  0  0
    2.1413   44.6021   55.1135 H   0  0  0  0  0  0  0  0  0  0  0  0
    0.8201   45.8352   55.2264 H   0  0  0  0  0  0  0  0  0  0  0  0
   -0.6756   41.6506   52.3539 H   0  0  0  0  0  0  0  0  0  0  0  0
    2.6564   42.5832   53.3517 H   0  0  0  0  0  0  0  0  0  0  0  0
    1.7978   41.9848   51.8791 H   0  0  0  0  0  0  0  0  0  0  0  0
    3.2525   43.6667   51.0730 H   0  0  0  0  0  0  0  0  0  0  0  0
    1.6185   44.4660   51.2138 H   0  0  0  0  0  0  0  0  0  0  0  0
  1  2  1  0
  2  3  1  0
  3  4  1  0
  4  5  1  0
  5  6  2  0
  6  7  1  0
  7  8  2  0
  8  9  1  0
  9 10  2  0
 10 11  1  0
 11 12  1  0
 12 13  1  0
 13 14  2  0
 13 15  1  0
 15 16  1  0
 16 17  1  0
 17 18  1  0
 18 19  2  0
 19 20  1  0
 20 21  2  0
 21 22  1  0
 22 23  1  0
 23 24  1  0
 12  3  1  0
 24 15  1  0
 10  5  1  0
 22 18  1  0
  1 25  1  0
  1 26  1  0
  1 27  1  0
  2 28  1  0
  2 29  1  0
  3 30  1  6
  4 31  1  0
  4 32  1  0
  6 33  1  0
  7 34  1  0
  8 35  1  0
  9 36  1  0
 11 37  1  0
 11 38  1  0
 15 39  1  1
 16 40  1  0
 16 41  1  0
 17 42  1  0
 17 43  1  0
 21 44  1  0
 23 45  1  0
 23 46  1  0
 24 47  1  0
 24 48  1  0
M  END
>  <meeko>  (1) 
{"is_sidechain": [false], "free_energy": -7.55, "intermolecular_energy": -11.081, "internal_energy": -0.225}

$$$$
ligand_31_conformer_5_docked
     RDKit          3D

 48 51  0  0  0  0  0  0  0  0999 V2000
    5.9680   42.9260   50.0290 C   0  0  0  0  0  0  0  0  0  0  0  0
    6.1320   43.9040   51.1930 C   0  0  0  0  0  0  0  0  0  0  0  0
    6.0080   45.4040   50.8160 C   0  0  2  0  0  0  0  0  0  0  0  0
    7.3630   46.0770   50.5240 C   0  0  0  0  0  0  0  0  0  0  0  0
    8.0880   46.4490   51.7780 C   0  0  0  0  0  0  0  0  0  0  0  0
    9.4920   46.4140   51.8220 C   0  0  0  0  0  0  0  0  0  0  0  0
   10.1670   46.7860   52.9880 C   0  0  0  0  0  0  0  0  0  0  0  0
    9.4470   47.2090   54.1070 C   0  0  0  0  0  0  0  0  0  0  0  0
    8.0520   47.2630   54.0610 C   0  0  0  0  0  0  0  0  0  0  0  0
    7.3630   46.8760   52.9000 C   0  0  0  0  0  0  0  0  0  0  0  0
    5.8600   46.9900   52.8540 C   0  0  0  0  0  0  0  0  0  0  0  0
    5.2140   46.1560   51.8170 N   0  0  0  0  0  0  0  0  0  0  0  0
    3.7610   46.1360   51.8090 C   0  0  0  0  0  0  0  0  0  0  0  0
    3.1460   46.7860   50.9160 O   0  0  0  0  0  0  0  0  0  0  0  0
    2.9370   45.2770   52.7580 C   0  0  1  0  0  0  0  0  0  0  0  0
    3.0370   43.7840   52.3540 C   0  0  0  0  0  0  0  0  0  0  0  0
    1.9470   42.9140   52.9850 C   0  0  0  0  0  0  0  0  0  0  0  0
    0.9210   43.7370   53.6990 C   0  0  0  0  0  0  0  0  0  0  0  0
   -0.3970   43.7010   53.4250 N   0  0  0  0  0  0  0  0  0  0  0  0
   -0.9840   44.5580   54.2500 N   0  0  0  0  0  0  0  0  0  0  0  0
   -0.0170   45.1020   55.0130 C   0  0  0  0  0  0  0  0  0  0  0  0
    1.1900   44.6030   54.6900 N   0  0  0  0  0  0  0  0  0  0  0  0
    2.4850   44.9470   55.2680 C   0  0  0  0  0  0  0  0  0  0  0  0
    3.4190   45.5380   54.2030 C   0  0  0  0  0  0  0  0  0  0  0  0
    5.7981   41.9129   50.4224 H   0  0  0  0  0  0  0  0  0  0  0  0
    5.1082   43.2293   49.4136 H   0  0  0  0  0  0  0  0  0  0  0  0
    6.8797   42.9322   49.4136 H   0  0  0  0  0  0  0  0  0  0  0  0
    5.3586   43.6758   51.9412 H   0  0  0  0  0  0  0  0  0  0  0  0
    7.1575   43.7661   51.5663 H   0  0  0  0  0  0  0  0  0  0  0  0
    5.4552   45.4336   49.8654 H   0  0  0  0  0  0  0  0  0  0  0  0
    7.9880   45.3801   49.9463 H   0  0  0  0  0  0  0  0  0  0  0  0
    7.1679   47.0003   49.9588 H   0  0  0  0  0  0  0  0  0  0  0  0
   10.0611   46.0932   50.9370 H   0  0  0  0  0  0  0  0  0  0  0  0
   11.2657   46.7455   53.0241 H   0  0  0  0  0  0  0  0  0  0  0  0
    9.9785   47.4998   55.0251 H   0  0  0  0  0  0  0  0  0  0  0  0
    7.4894   47.6109   54.9399 H   0  0  0  0  0  0  0  0  0  0  0  0
    5.4622   46.6889   53.8344 H   0  0  0  0  0  0  0  0  0  0  0  0
    5.6327   48.0361   52.6011 H   0  0  0  0  0  0  0  0  0  0  0  0
    1.8716   45.5442   52.6989 H   0  0  0  0  0  0  0  0  0  0  0  0
    2.9522   43.7116   51.2597 H   0  0  0  0  0  0  0  0  0  0  0  0
    4.0052   43.4108   52.7192 H   0  0  0  0  0  0  0  0  0  0  0  0
    1.4502   42.3354   52.1922 H   0  0  0  0  0  0  0  0  0  0  0  0
    2.4239   42.2496   53.7207 H   0  0  0  0  0  0  0  0  0  0  0  0
   -0.1908   45.8544   55.7963 H   0  0  0  0  0  0  0  0  0  0  0  0
    2.3373   45.6869   56.0685 H   0  0  0  0  0  0  0  0  0  0  0  0
    2.9447   44.0325   55.6710 H   0  0  0  0  0  0  0  0  0  0  0  0
    3.4836   46.6250   54.3590 H   0  0  0  0  0  0  0  0  0  0  0  0
    4.3962   45.0456   54.3156 H   0  0  0  0  0  0  0  0  0  0  0  0
  1  2  1  0
  2  3  1  0
  3  4  1  0
  4  5  1  0
  5  6  2  0
  6  7  1  0
  7  8  2  0
  8  9  1  0
  9 10  2  0
 10 11  1  0
 11 12  1  0
 12 13  1  0
 13 14  2  0
 13 15  1  0
 15 16  1  0
 16 17  1  0
 17 18  1  0
 18 19  2  0
 19 20  1  0
 20 21  2  0
 21 22  1  0
 22 23  1  0
 23 24  1  0
 12  3  1  0
 24 15  1  0
 10  5  1  0
 22 18  1  0
  1 25  1  0
  1 26  1  0
  1 27  1  0
  2 28  1  0
  2 29  1  0
  3 30  1  6
  4 31  1  0
  4 32  1  0
  6 33  1  0
  7 34  1  0
  8 35  1  0
  9 36  1  0
 11 37  1  0
 11 38  1  0
 15 39  1  1
 16 40  1  0
 16 41  1  0
 17 42  1  0
 17 43  1  0
 21 44  1  0
 23 45  1  0
 23 46  1  0
 24 47  1  0
 24 48  1  0
M  END
>  <meeko>  (2) 
{"is_sidechain": [false], "free_energy": -7.25, "intermolecular_energy": -11.051, "internal_energy": 0.186}

$$$$
ligand_31_conformer_5_docked
     RDKit          3D

 48 51  0  0  0  0  0  0  0  0999 V2000
    7.4440   43.4410   49.3260 C   0  0  0  0  0  0  0  0  0  0  0  0
    6.3280   43.0890   50.3100 C   0  0  0  0  0  0  0  0  0  0  0  0
    5.3690   44.2570   50.6630 C   0  0  2  0  0  0  0  0  0  0  0  0
    5.9900   45.6500   50.4400 C   0  0  0  0  0  0  0  0  0  0  0  0
    6.8940   46.0490   51.5630 C   0  0  0  0  0  0  0  0  0  0  0  0
    8.0250   46.8450   51.3150 C   0  0  0  0  0  0  0  0  0  0  0  0
    8.8530   47.2360   52.3690 C   0  0  0  0  0  0  0  0  0  0  0  0
    8.5490   46.8500   53.6760 C   0  0  0  0  0  0  0  0  0  0  0  0
    7.4160   46.0740   53.9300 C   0  0  0  0  0  0  0  0  0  0  0  0
    6.5850   45.6630   52.8750 C   0  0  0  0  0  0  0  0  0  0  0  0
    5.3390   44.8690   53.1770 C   0  0  0  0  0  0  0  0  0  0  0  0
    4.8040   44.1090   52.0260 N   0  0  0  0  0  0  0  0  0  0  0  0
    3.6750   43.2330   52.2920 C   0  0  0  0  0  0  0  0  0  0  0  0
    3.8600   41.9820   52.3000 O   0  0  0  0  0  0  0  0  0  0  0  0
    2.2950   43.7490   52.6740 C   0  0  1  0  0  0  0  0  0  0  0  0
    2.3060   44.2830   54.1300 C   0  0  0  0  0  0  0  0  0  0  0  0
    0.9060   44.3710   54.7900 C   0  0  0  0  0  0  0  0  0  0  0  0
   -0.1840   43.9260   53.8650 C   0  0  0  0  0  0  0  0  0  0  0  0
   -1.1200   43.0140   54.1870 N   0  0  0  0  0  0  0  0  0  0  0  0
   -1.9050   42.8780   53.1260 N   0  0  0  0  0  0  0  0  0  0  0  0
   -1.4350   43.7080   52.1750 C   0  0  0  0  0  0  0  0  0  0  0  0
   -0.3570   44.3810   52.6120 N   0  0  0  0  0  0  0  0  0  0  0  0
    0.4490   45.3540   51.8820 C   0  0  0  0  0  0  0  0  0  0  0  0
    1.8690   44.8230   51.6470 C   0  0  0  0  0  0  0  0  0  0  0  0
    8.3482   43.7262   49.8838 H   0  0  0  0  0  0  0  0  0  0  0  0
    7.6635   42.5685   48.6931 H   0  0  0  0  0  0  0  0  0  0  0  0
    7.1232   44.2816   48.6931 H   0  0  0  0  0  0  0  0  0  0  0  0
    5.7294   42.2776   49.8703 H   0  0  0  0  0  0  0  0  0  0  0  0
    6.8257   42.8066   51.2495 H   0  0  0  0  0  0  0  0  0  0  0  0
    4.5345   44.1900   49.9495 H   0  0  0  0  0  0  0  0  0  0  0  0
    6.5705   45.6342   49.5058 H   0  0  0  0  0  0  0  0  0  0  0  0
    5.1706   46.3820   50.3882 H   0  0  0  0  0  0  0  0  0  0  0  0
    8.2587   47.1610   50.2876 H   0  0  0  0  0  0  0  0  0  0  0  0
    9.7449   47.8482   52.1697 H   0  0  0  0  0  0  0  0  0  0  0  0
    9.2022   47.1573   54.5060 H   0  0  0  0  0  0  0  0  0  0  0  0
    7.1730   45.7829   54.9626 H   0  0  0  0  0  0  0  0  0  0  0  0
    5.5721   44.1560   53.9815 H   0  0  0  0  0  0  0  0  0  0  0  0
    4.5642   45.5968   53.4598 H   0  0  0  0  0  0  0  0  0  0  0  0
    1.5542   42.9363   52.6467 H   0  0  0  0  0  0  0  0  0  0  0  0
    2.9314   43.6125   54.7377 H   0  0  0  0  0  0  0  0  0  0  0  0
    2.6971   45.3101   54.0849 H   0  0  0  0  0  0  0  0  0  0  0  0
    0.8951   43.7307   55.6844 H   0  0  0  0  0  0  0  0  0  0  0  0
    0.7203   45.4238   55.0492 H   0  0  0  0  0  0  0  0  0  0  0  0
   -1.8753   43.8201   51.1732 H   0  0  0  0  0  0  0  0  0  0  0  0
   -0.0248   45.5574   50.9103 H   0  0  0  0  0  0  0  0  0  0  0  0
    0.5129   46.2757   52.4790 H   0  0  0  0  0  0  0  0  0  0  0  0
    1.9153   44.3820   50.6403 H   0  0  0  0  0  0  0  0  0  0  0  0
    2.5584   45.6730   51.7577 H   0  0  0  0  0  0  0  0  0  0  0  0
  1  2  1  0
  2  3  1  0
  3  4  1  0
  4  5  1  0
  5  6  2  0
  6  7  1  0
  7  8  2  0
  8  9  1  0
  9 10  2  0
 10 11  1  0
 11 12  1  0
 12 13  1  0
 13 14  2  0
 13 15  1  0
 15 16  1  0
 16 17  1  0
 17 18  1  0
 18 19  2  0
 19 20  1  0
 20 21  2  0
 21 22  1  0
 22 23  1  0
 23 24  1  0
 12  3  1  0
 24 15  1  0
 10  5  1  0
 22 18  1  0
  1 25  1  0
  1 26  1  0
  1 27  1  0
  2 28  1  0
  2 29  1  0
  3 30  1  6
  4 31  1  0
  4 32  1  0
  6 33  1  0
  7 34  1  0
  8 35  1  0
  9 36  1  0
 11 37  1  0
 11 38  1  0
 15 39  1  1
 16 40  1  0
 16 41  1  0
 17 42  1  0
 17 43  1  0
 21 44  1  0
 23 45  1  0
 23 46  1  0
 24 47  1  0
 24 48  1  0
M  END
>  <meeko>  (3) 
{"is_sidechain": [false], "free_energy": -6.875, "intermolecular_energy": -10.293, "internal_energy": -0.021}

$$$$
ligand_31_conformer_5_docked
     RDKit          3D

 48 51  0  0  0  0  0  0  0  0999 V2000
    3.1690   47.0790   51.7190 C   0  0  0  0  0  0  0  0  0  0  0  0
    3.3620   45.8550   50.8230 C   0  0  0  0  0  0  0  0  0  0  0  0
    4.0090   44.6270   51.5170 C   0  0  2  0  0  0  0  0  0  0  0  0
    3.0230   43.8250   52.3890 C   0  0  0  0  0  0  0  0  0  0  0  0
    2.8000   44.4640   53.7220 C   0  0  0  0  0  0  0  0  0  0  0  0
    1.5520   44.3630   54.3580 C   0  0  0  0  0  0  0  0  0  0  0  0
    1.3550   44.9410   55.6140 C   0  0  0  0  0  0  0  0  0  0  0  0
    2.4050   45.6080   56.2480 C   0  0  0  0  0  0  0  0  0  0  0  0
    3.6540   45.6950   55.6280 C   0  0  0  0  0  0  0  0  0  0  0  0
    3.8580   45.1310   54.3580 C   0  0  0  0  0  0  0  0  0  0  0  0
    5.2270   45.1920   53.7290 C   0  0  0  0  0  0  0  0  0  0  0  0
    5.2350   45.0030   52.2620 N   0  0  0  0  0  0  0  0  0  0  0  0
    6.5130   45.1720   51.5900 C   0  0  0  0  0  0  0  0  0  0  0  0
    6.7120   44.5720   50.4960 O   0  0  0  0  0  0  0  0  0  0  0  0
    7.5890   46.1300   52.0820 C   0  0  1  0  0  0  0  0  0  0  0  0
    8.9470   45.8040   51.4090 C   0  0  0  0  0  0  0  0  0  0  0  0
   10.1590   46.4150   52.1310 C   0  0  0  0  0  0  0  0  0  0  0  0
    9.7630   47.0770   53.4140 C   0  0  0  0  0  0  0  0  0  0  0  0
   10.2970   46.7770   54.6130 N   0  0  0  0  0  0  0  0  0  0  0  0
    9.7020   47.5590   55.5040 N   0  0  0  0  0  0  0  0  0  0  0  0
    8.8170   48.3230   54.8360 C   0  0  0  0  0  0  0  0  0  0  0  0
    8.8360   48.0430   53.5210 N   0  0  0  0  0  0  0  0  0  0  0  0
    8.0170   48.6360   52.4680 C   0  0  0  0  0  0  0  0  0  0  0  0
    7.1200   47.5780   51.8120 C   0  0  0  0  0  0  0  0  0  0  0  0
    3.2174   46.7722   52.7743 H   0  0  0  0  0  0  0  0  0  0  0  0
    3.9626   47.8125   51.5137 H   0  0  0  0  0  0  0  0  0  0  0  0
    2.1882   47.5327   51.5137 H   0  0  0  0  0  0  0  0  0  0  0  0
    2.3752   45.5513   50.4436 H   0  0  0  0  0  0  0  0  0  0  0  0
    4.0602   46.1623   50.0305 H   0  0  0  0  0  0  0  0  0  0  0  0
    4.3085   43.9439   50.7085 H   0  0  0  0  0  0  0  0  0  0  0  0
    2.0593   43.7569   51.8630 H   0  0  0  0  0  0  0  0  0  0  0  0
    3.4566   42.8287   52.5602 H   0  0  0  0  0  0  0  0  0  0  0  0
    0.7273   43.8271   53.8655 H   0  0  0  0  0  0  0  0  0  0  0  0
    0.3726   44.8708   56.1038 H   0  0  0  0  0  0  0  0  0  0  0  0
    2.2488   46.0653   57.2362 H   0  0  0  0  0  0  0  0  0  0  0  0
    4.4827   46.2084   56.1376 H   0  0  0  0  0  0  0  0  0  0  0  0
    5.6641   46.1767   53.9513 H   0  0  0  0  0  0  0  0  0  0  0  0
    5.8056   44.3594   54.1557 H   0  0  0  0  0  0  0  0  0  0  0  0
    7.7450   46.0171   53.1650 H   0  0  0  0  0  0  0  0  0  0  0  0
    9.0703   44.7111   51.3880 H   0  0  0  0  0  0  0  0  0  0  0  0
    8.9191   46.2436   50.4010 H   0  0  0  0  0  0  0  0  0  0  0  0
   10.8830   45.6165   52.3505 H   0  0  0  0  0  0  0  0  0  0  0  0
   10.6011   47.1780   51.4735 H   0  0  0  0  0  0  0  0  0  0  0  0
    8.1654   49.0758   55.3037 H   0  0  0  0  0  0  0  0  0  0  0  0
    7.3852   49.4241   52.9037 H   0  0  0  0  0  0  0  0  0  0  0  0
    8.6823   49.0581   51.7004 H   0  0  0  0  0  0  0  0  0  0  0  0
    6.0988   47.6936   52.2041 H   0  0  0  0  0  0  0  0  0  0  0  0
    7.1658   47.7391   50.7248 H   0  0  0  0  0  0  0  0  0  0  0  0
  1  2  1  0
  2  3  1  0
  3  4  1  0
  4  5  1  0
  5  6  2  0
  6  7  1  0
  7  8  2  0
  8  9  1  0
  9 10  2  0
 10 11  1  0
 11 12  1  0
 12 13  1  0
 13 14  2  0
 13 15  1  0
 15 16  1  0
 16 17  1  0
 17 18  1  0
 18 19  2  0
 19 20  1  0
 20 21  2  0
 21 22  1  0
 22 23  1  0
 23 24  1  0
 12  3  1  0
 24 15  1  0
 10  5  1  0
 22 18  1  0
  1 25  1  0
  1 26  1  0
  1 27  1  0
  2 28  1  0
  2 29  1  0
  3 30  1  6
  4 31  1  0
  4 32  1  0
  6 33  1  0
  7 34  1  0
  8 35  1  0
  9 36  1  0
 11 37  1  0
 11 38  1  0
 15 39  1  1
 16 40  1  0
 16 41  1  0
 17 42  1  0
 17 43  1  0
 21 44  1  0
 23 45  1  0
 23 46  1  0
 24 47  1  0
 24 48  1  0
M  END
>  <meeko>  (4) 
{"is_sidechain": [false], "free_energy": -6.401, "intermolecular_energy": -9.463, "internal_energy": -0.156}

$$$$
ligand_31_conformer_5_docked
     RDKit          3D

 48 51  0  0  0  0  0  0  0  0999 V2000
    4.2620   48.2870   53.4960 C   0  0  0  0  0  0  0  0  0  0  0  0
    4.8130   47.2940   54.5190 C   0  0  0  0  0  0  0  0  0  0  0  0
    5.1770   45.8970   53.9510 C   0  0  2  0  0  0  0  0  0  0  0  0
    6.5920   45.4260   54.3400 C   0  0  0  0  0  0  0  0  0  0  0  0
    7.6490   46.0510   53.4860 C   0  0  0  0  0  0  0  0  0  0  0  0
    8.9150   46.3380   54.0210 C   0  0  0  0  0  0  0  0  0  0  0  0
    9.9080   46.9000   53.2150 C   0  0  0  0  0  0  0  0  0  0  0  0
    9.6470   47.1640   51.8690 C   0  0  0  0  0  0  0  0  0  0  0  0
    8.3940   46.8650   51.3270 C   0  0  0  0  0  0  0  0  0  0  0  0
    7.3850   46.3130   52.1340 C   0  0  0  0  0  0  0  0  0  0  0  0
    6.0570   45.9500   51.5180 C   0  0  0  0  0  0  0  0  0  0  0  0
    4.9470   45.8240   52.4880 N   0  0  0  0  0  0  0  0  0  0  0  0
    3.6220   45.5940   51.9350 C   0  0  0  0  0  0  0  0  0  0  0  0
    3.4010   45.9030   50.7290 O   0  0  0  0  0  0  0  0  0  0  0  0
    2.5120   44.8930   52.7040 C   0  0  1  0  0  0  0  0  0  0  0  0
    1.1600   45.6180   52.4770 C   0  0  0  0  0  0  0  0  0  0  0  0
    0.0330   45.1800   53.4410 C   0  0  0  0  0  0  0  0  0  0  0  0
   -0.5190   43.8460   53.0470 C   0  0  0  0  0  0  0  0  0  0  0  0
   -1.8130   43.6240   52.7490 N   0  0  0  0  0  0  0  0  0  0  0  0
   -1.9230   42.3350   52.4540 N   0  0  0  0  0  0  0  0  0  0  0  0
   -0.6970   41.7920   52.5770 C   0  0  0  0  0  0  0  0  0  0  0  0
    0.2050   42.7190   52.9470 N   0  0  0  0  0  0  0  0  0  0  0  0
    1.6300   42.5290   53.2030 C   0  0  0  0  0  0  0  0  0  0  0  0
    2.4740   43.4100   52.2710 C   0  0  0  0  0  0  0  0  0  0  0  0
    3.7930   49.1322   54.0211 H   0  0  0  0  0  0  0  0  0  0  0  0
    5.0836   48.6575   52.8653 H   0  0  0  0  0  0  0  0  0  0  0  0
    3.5129   47.7860   52.8653 H   0  0  0  0  0  0  0  0  0  0  0  0
    5.7213   47.7292   54.9612 H   0  0  0  0  0  0  0  0  0  0  0  0
    4.0069   47.1272   55.2486 H   0  0  0  0  0  0  0  0  0  0  0  0
    4.4884   45.1859   54.4308 H   0  0  0  0  0  0  0  0  0  0  0  0
    6.7792   45.6957   55.3899 H   0  0  0  0  0  0  0  0  0  0  0  0
    6.6384   44.3369   54.1926 H   0  0  0  0  0  0  0  0  0  0  0  0
    9.1256   46.1196   55.0783 H   0  0  0  0  0  0  0  0  0  0  0  0
   10.8949   47.1344   53.6405 H   0  0  0  0  0  0  0  0  0  0  0  0
   10.4284   47.6078   51.2346 H   0  0  0  0  0  0  0  0  0  0  0  0
    8.1967   47.0629   50.2631 H   0  0  0  0  0  0  0  0  0  0  0  0
    5.7907   46.7305   50.7900 H   0  0  0  0  0  0  0  0  0  0  0  0
    6.1851   44.9594   51.0573 H   0  0  0  0  0  0  0  0  0  0  0  0
    2.7057   44.9295   53.7862 H   0  0  0  0  0  0  0  0  0  0  0  0
    1.3226   46.6983   52.6055 H   0  0  0  0  0  0  0  0  0  0  0  0
    0.8272   45.3533   51.4625 H   0  0  0  0  0  0  0  0  0  0  0  0
    0.4375   45.1150   54.4619 H   0  0  0  0  0  0  0  0  0  0  0  0
   -0.7770   45.9228   53.3949 H   0  0  0  0  0  0  0  0  0  0  0  0
   -0.4640   40.7318   52.3987 H   0  0  0  0  0  0  0  0  0  0  0  0
    1.8476   42.7971   54.2474 H   0  0  0  0  0  0  0  0  0  0  0  0
    1.8840   41.4750   53.0172 H   0  0  0  0  0  0  0  0  0  0  0  0
    3.5034   43.0223   52.2609 H   0  0  0  0  0  0  0  0  0  0  0  0
    2.0083   43.3722   51.2752 H   0  0  0  0  0  0  0  0  0  0  0  0
  1  2  1  0
  2  3  1  0
  3  4  1  0
  4  5  1  0
  5  6  2  0
  6  7  1  0
  7  8  2  0
  8  9  1  0
  9 10  2  0
 10 11  1  0
 11 12  1  0
 12 13  1  0
 13 14  2  0
 13 15  1  0
 15 16  1  0
 16 17  1  0
 17 18  1  0
 18 19  2  0
 19 20  1  0
 20 21  2  0
 21 22  1  0
 22 23  1  0
 23 24  1  0
 12  3  1  0
 24 15  1  0
 10  5  1  0
 22 18  1  0
  1 25  1  0
  1 26  1  0
  1 27  1  0
  2 28  1  0
  2 29  1  0
  3 30  1  1
  4 31  1  0
  4 32  1  0
  6 33  1  0
  7 34  1  0
  8 35  1  0
  9 36  1  0
 11 37  1  0
 11 38  1  0
 15 39  1  1
 16 40  1  0
 16 41  1  0
 17 42  1  0
 17 43  1  0
 21 44  1  0
 23 45  1  0
 23 46  1  0
 24 47  1  0
 24 48  1  0
M  END
>  <meeko>  (5) 
{"is_sidechain": [false], "free_energy": -6.339, "intermolecular_energy": -9.638, "internal_energy": 0.11}

$$$$
