MODEL 1
REMARK VINA RESULT:    -8.539      0.000      0.000
REMARK INTER + INTRA:         -10.597
REMARK INTER:                 -10.037
REMARK INTRA:                  -0.560
REMARK UNBOUND:                -0.560
REMARK SMILES O=C(NC1CCOCC1)c1cncc(-c2ccc3c(c2)CCO3)c1
REMARK SMILES IDX 10 1 11 2 12 3 13 4 14 5 24 6 2 7 1 8 3 9 4 11 5 12 9 13
REMARK SMILES IDX 6 14 8 15 7 16 15 17 16 18 20 19 17 20 19 21 18 22 21 23
REMARK SMILES IDX 23 24 22 25
REMARK H PARENT 3 10
ROOT
ATOM      1  C   UNL     1       2.370  45.267  53.256  1.00  0.00     0.058 A 
ATOM      2  C   UNL     1       1.670  45.398  52.046  1.00  0.00     0.124 A 
ATOM      3  N   UNL     1       2.329  45.720  50.903  1.00  0.00    -0.263 NA
ATOM      4  C   UNL     1       3.672  45.917  50.879  1.00  0.00     0.119 A 
ATOM      5  C   UNL     1       4.430  45.788  52.053  1.00  0.00     0.001 A 
ATOM      6  C   UNL     1       3.762  45.456  53.244  1.00  0.00     0.025 A 
ENDROOT
BRANCH   1   7
ATOM      7  C   UNL     1       1.651  44.908  54.501  1.00  0.00     0.253 C 
ATOM      8  O   UNL     1       2.302  44.766  55.572  1.00  0.00    -0.269 OA
ATOM      9  N   UNL     1       0.229  44.700  54.502  1.00  0.00    -0.349 N 
ATOM     10  H   UNL     1      -0.263  44.575  53.589  1.00  0.00     0.164 HD
BRANCH   9  11
ATOM     11  C   UNL     1      -0.535  44.561  55.746  1.00  0.00     0.086 C 
ATOM     12  C   UNL     1      -1.831  43.770  55.506  1.00  0.00     0.053 C 
ATOM     13  C   UNL     1      -0.865  45.948  56.333  1.00  0.00     0.053 C 
ATOM     14  C   UNL     1      -2.680  43.696  56.798  1.00  0.00     0.162 C 
ATOM     15  C   UNL     1      -2.084  45.890  57.274  1.00  0.00     0.162 C 
ATOM     16  O   UNL     1      -2.246  44.592  57.809  1.00  0.00    -0.381 OA
ENDBRANCH   9  11
ENDBRANCH   1   7
BRANCH   5  17
ATOM     17  C   UNL     1       5.900  45.992  52.037  1.00  0.00    -0.016 A 
ATOM     18  C   UNL     1       6.658  45.678  50.880  1.00  0.00     0.012 A 
ATOM     19  C   UNL     1       6.564  46.505  53.176  1.00  0.00     0.016 A 
ATOM     20  C   UNL     1       8.048  45.870  50.859  1.00  0.00     0.047 A 
ATOM     21  C   UNL     1       7.947  46.684  53.122  1.00  0.00    -0.002 A 
ATOM     22  C   UNL     1       8.660  46.378  52.002  1.00  0.00     0.122 A 
ATOM     23  C   UNL     1       8.857  47.207  54.175  1.00  0.00     0.081 C 
ATOM     24  O   UNL     1      10.002  46.635  52.172  1.00  0.00    -0.493 OA
ATOM     25  C   UNL     1      10.241  47.152  53.482  1.00  0.00     0.234 C 
ENDBRANCH   5  17
TORSDOF 3
ENDMDL
MODEL 2
REMARK VINA RESULT:    -8.435      3.203      3.836
REMARK INTER + INTRA:         -10.474
REMARK INTER:                  -9.907
REMARK INTRA:                  -0.567
REMARK UNBOUND:                -0.560
REMARK SMILES O=C(NC1CCOCC1)c1cncc(-c2ccc3c(c2)CCO3)c1
REMARK SMILES IDX 10 1 11 2 12 3 13 4 14 5 24 6 2 7 1 8 3 9 4 11 5 12 9 13
REMARK SMILES IDX 6 14 8 15 7 16 15 17 16 18 20 19 17 20 19 21 18 22 21 23
REMARK SMILES IDX 23 24 22 25
REMARK H PARENT 3 10
ROOT
ATOM      1  C   UNL     1       2.091  44.933  51.655  1.00  0.00     0.058 A 
ATOM      2  C   UNL     1       1.561  46.038  52.339  1.00  0.00     0.124 A 
ATOM      3  N   UNL     1       2.379  47.027  52.784  1.00  0.00    -0.263 NA
ATOM      4  C   UNL     1       3.721  46.995  52.580  1.00  0.00     0.119 A 
ATOM      5  C   UNL     1       4.309  45.923  51.892  1.00  0.00     0.001 A 
ATOM      6  C   UNL     1       3.476  44.892  51.426  1.00  0.00     0.025 A 
ENDROOT
BRANCH   1   7
ATOM      7  C   UNL     1       1.196  43.859  51.163  1.00  0.00     0.253 C 
ATOM      8  O   UNL     1       1.648  42.689  51.034  1.00  0.00    -0.269 OA
ATOM      9  N   UNL     1      -0.171  44.135  50.814  1.00  0.00    -0.349 N 
ATOM     10  H   UNL     1      -0.468  45.128  50.686  1.00  0.00     0.164 HD
BRANCH   9  11
ATOM     11  C   UNL     1      -1.133  43.063  50.536  1.00  0.00     0.086 C 
ATOM     12  C   UNL     1      -2.129  43.491  49.447  1.00  0.00     0.053 C 
ATOM     13  C   UNL     1      -1.892  42.675  51.821  1.00  0.00     0.053 C 
ATOM     14  C   UNL     1      -3.198  42.397  49.213  1.00  0.00     0.162 C 
ATOM     15  C   UNL     1      -3.239  41.999  51.502  1.00  0.00     0.162 C 
ATOM     16  O   UNL     1      -3.210  41.398  50.223  1.00  0.00    -0.381 OA
ENDBRANCH   9  11
ENDBRANCH   1   7
BRANCH   5  17
ATOM     17  C   UNL     1       5.775  45.882  51.656  1.00  0.00    -0.016 A 
ATOM     18  C   UNL     1       6.299  45.261  50.494  1.00  0.00     0.012 A 
ATOM     19  C   UNL     1       6.666  46.465  52.587  1.00  0.00     0.016 A 
ATOM     20  C   UNL     1       7.684  45.221  50.266  1.00  0.00     0.047 A 
ATOM     21  C   UNL     1       8.037  46.408  52.329  1.00  0.00    -0.002 A 
ATOM     22  C   UNL     1       8.524  45.807  51.208  1.00  0.00     0.122 A 
ATOM     23  C   UNL     1       9.157  46.947  53.144  1.00  0.00     0.081 C 
ATOM     24  O   UNL     1       9.899  45.871  51.159  1.00  0.00    -0.493 OA
ATOM     25  C   UNL     1      10.400  46.554  52.308  1.00  0.00     0.234 C 
ENDBRANCH   5  17
TORSDOF 3
ENDMDL
MODEL 3
REMARK VINA RESULT:    -8.121      2.455      3.118
REMARK INTER + INTRA:         -10.105
REMARK INTER:                  -9.558
REMARK INTRA:                  -0.547
REMARK UNBOUND:                -0.560
REMARK SMILES O=C(NC1CCOCC1)c1cncc(-c2ccc3c(c2)CCO3)c1
REMARK SMILES IDX 10 1 11 2 12 3 13 4 14 5 24 6 2 7 1 8 3 9 4 11 5 12 9 13
REMARK SMILES IDX 6 14 8 15 7 16 15 17 16 18 20 19 17 20 19 21 18 22 21 23
REMARK SMILES IDX 23 24 22 25
REMARK H PARENT 3 10
ROOT
ATOM      1  C   UNL     1       2.223  44.513  54.051  1.00  0.00     0.058 A 
ATOM      2  C   UNL     1       2.033  45.220  55.248  1.00  0.00     0.124 A 
ATOM      3  N   UNL     1       3.009  46.038  55.724  1.00  0.00    -0.263 NA
ATOM      4  C   UNL     1       4.185  46.210  55.068  1.00  0.00     0.119 A 
ATOM      5  C   UNL     1       4.429  45.541  53.860  1.00  0.00     0.001 A 
ATOM      6  C   UNL     1       3.430  44.691  53.355  1.00  0.00     0.025 A 
ENDROOT
BRANCH   1   7
ATOM      7  C   UNL     1       1.155  43.628  53.528  1.00  0.00     0.253 C 
ATOM      8  O   UNL     1       1.399  42.403  53.352  1.00  0.00    -0.269 OA
ATOM      9  N   UNL     1      -0.145  44.148  53.201  1.00  0.00    -0.349 N 
ATOM     10  H   UNL     1      -0.267  45.182  53.113  1.00  0.00     0.164 HD
BRANCH   9  11
ATOM     11  C   UNL     1      -1.278  43.269  52.893  1.00  0.00     0.086 C 
ATOM     12  C   UNL     1      -1.385  43.026  51.380  1.00  0.00     0.053 C 
ATOM     13  C   UNL     1      -2.591  43.879  53.423  1.00  0.00     0.053 C 
ATOM     14  C   UNL     1      -2.630  42.170  51.044  1.00  0.00     0.162 C 
ATOM     15  C   UNL     1      -3.818  43.322  52.675  1.00  0.00     0.162 C 
ATOM     16  O   UNL     1      -3.539  42.049  52.128  1.00  0.00    -0.381 OA
ENDBRANCH   9  11
ENDBRANCH   1   7
BRANCH   5  17
ATOM     17  C   UNL     1       5.708  45.729  53.129  1.00  0.00    -0.016 A 
ATOM     18  C   UNL     1       5.774  45.522  51.728  1.00  0.00     0.012 A 
ATOM     19  C   UNL     1       6.877  46.120  53.823  1.00  0.00     0.016 A 
ATOM     20  C   UNL     1       6.981  45.701  51.033  1.00  0.00     0.047 A 
ATOM     21  C   UNL     1       8.060  46.288  53.102  1.00  0.00    -0.002 A 
ATOM     22  C   UNL     1       8.106  46.086  51.756  1.00  0.00     0.122 A 
ATOM     23  C   UNL     1       9.400  46.695  53.600  1.00  0.00     0.081 C 
ATOM     24  O   UNL     1       9.369  46.311  51.255  1.00  0.00    -0.493 OA
ATOM     25  C   UNL     1      10.254  46.693  52.308  1.00  0.00     0.234 C 
ENDBRANCH   5  17
TORSDOF 3
ENDMDL
MODEL 4
REMARK VINA RESULT:    -8.008      1.993      8.676
REMARK INTER + INTRA:          -9.972
REMARK INTER:                  -9.444
REMARK INTRA:                  -0.529
REMARK UNBOUND:                -0.560
REMARK SMILES O=C(NC1CCOCC1)c1cncc(-c2ccc3c(c2)CCO3)c1
REMARK SMILES IDX 10 1 11 2 12 3 13 4 14 5 24 6 2 7 1 8 3 9 4 11 5 12 9 13
REMARK SMILES IDX 6 14 8 15 7 16 15 17 16 18 20 19 17 20 19 21 18 22 21 23
REMARK SMILES IDX 23 24 22 25
REMARK H PARENT 3 10
ROOT
ATOM      1  C   UNL     1       4.027  43.931  52.210  1.00  0.00     0.058 A 
ATOM      2  C   UNL     1       3.484  43.119  51.203  1.00  0.00     0.124 A 
ATOM      3  N   UNL     1       2.202  42.679  51.293  1.00  0.00    -0.263 NA
ATOM      4  C   UNL     1       1.401  43.008  52.339  1.00  0.00     0.119 A 
ATOM      5  C   UNL     1       1.882  43.828  53.371  1.00  0.00     0.001 A 
ATOM      6  C   UNL     1       3.207  44.290  53.293  1.00  0.00     0.025 A 
ENDROOT
BRANCH   1   7
ATOM      7  C   UNL     1       5.424  44.418  52.107  1.00  0.00     0.253 C 
ATOM      8  O   UNL     1       6.147  44.021  51.153  1.00  0.00    -0.269 OA
ATOM      9  N   UNL     1       5.970  45.316  53.087  1.00  0.00    -0.349 N 
ATOM     10  H   UNL     1       5.464  45.444  53.992  1.00  0.00     0.164 HD
BRANCH   9  11
ATOM     11  C   UNL     1       7.264  45.981  52.895  1.00  0.00     0.086 C 
ATOM     12  C   UNL     1       7.770  46.582  54.216  1.00  0.00     0.053 C 
ATOM     13  C   UNL     1       7.148  47.084  51.824  1.00  0.00     0.053 C 
ATOM     14  C   UNL     1       9.090  47.358  54.000  1.00  0.00     0.162 C 
ATOM     15  C   UNL     1       8.257  48.142  51.977  1.00  0.00     0.162 C 
ATOM     16  O   UNL     1       9.385  47.597  52.631  1.00  0.00    -0.381 OA
ENDBRANCH   9  11
ENDBRANCH   1   7
BRANCH   5  17
ATOM     17  C   UNL     1       1.013  44.202  54.515  1.00  0.00    -0.016 A 
ATOM     18  C   UNL     1       1.553  44.875  55.640  1.00  0.00     0.012 A 
ATOM     19  C   UNL     1      -0.368  43.894  54.495  1.00  0.00     0.016 A 
ATOM     20  C   UNL     1       0.734  45.231  56.723  1.00  0.00     0.047 A 
ATOM     21  C   UNL     1      -1.154  44.263  55.587  1.00  0.00    -0.002 A 
ATOM     22  C   UNL     1      -0.618  44.909  56.661  1.00  0.00     0.122 A 
ATOM     23  C   UNL     1      -2.611  44.056  55.794  1.00  0.00     0.081 C 
ATOM     24  O   UNL     1      -1.574  45.176  57.616  1.00  0.00    -0.493 OA
ATOM     25  C   UNL     1      -2.846  44.692  57.187  1.00  0.00     0.234 C 
ENDBRANCH   5  17
TORSDOF 3
ENDMDL
MODEL 5
REMARK VINA RESULT:    -7.990      5.345      7.497
REMARK INTER + INTRA:          -9.951
REMARK INTER:                  -9.377
REMARK INTRA:                  -0.574
REMARK UNBOUND:                -0.560
REMARK SMILES O=C(NC1CCOCC1)c1cncc(-c2ccc3c(c2)CCO3)c1
REMARK SMILES IDX 10 1 11 2 12 3 13 4 14 5 24 6 2 7 1 8 3 9 4 11 5 12 9 13
REMARK SMILES IDX 6 14 8 15 7 16 15 17 16 18 20 19 17 20 19 21 18 22 21 23
REMARK SMILES IDX 23 24 22 25
REMARK H PARENT 3 10
ROOT
ATOM      1  C   UNL     1       4.029  42.109  50.450  1.00  0.00     0.058 A 
ATOM      2  C   UNL     1       2.770  41.946  51.049  1.00  0.00     0.124 A 
ATOM      3  N   UNL     1       2.436  42.667  52.151  1.00  0.00    -0.263 NA
ATOM      4  C   UNL     1       3.287  43.568  52.705  1.00  0.00     0.119 A 
ATOM      5  C   UNL     1       4.555  43.786  52.144  1.00  0.00     0.001 A 
ATOM      6  C   UNL     1       4.915  43.047  51.004  1.00  0.00     0.025 A 
ENDROOT
BRANCH   1   7
ATOM      7  C   UNL     1       4.389  41.328  49.243  1.00  0.00     0.253 C 
ATOM      8  O   UNL     1       5.606  41.169  48.950  1.00  0.00    -0.269 OA
ATOM      9  N   UNL     1       3.375  40.768  48.392  1.00  0.00    -0.349 N 
ATOM     10  H   UNL     1       2.390  41.103  48.493  1.00  0.00     0.164 HD
BRANCH   9  11
ATOM     11  C   UNL     1       3.696  39.815  47.324  1.00  0.00     0.086 C 
ATOM     12  C   UNL     1       3.524  40.465  45.942  1.00  0.00     0.053 C 
ATOM     13  C   UNL     1       2.801  38.564  47.433  1.00  0.00     0.053 C 
ATOM     14  C   UNL     1       3.778  39.438  44.813  1.00  0.00     0.162 C 
ATOM     15  C   UNL     1       2.694  37.824  46.086  1.00  0.00     0.162 C 
ATOM     16  O   UNL     1       3.818  38.095  45.272  1.00  0.00    -0.381 OA
ENDBRANCH   9  11
ENDBRANCH   1   7
BRANCH   5  17
ATOM     17  C   UNL     1       5.489  44.776  52.736  1.00  0.00    -0.016 A 
ATOM     18  C   UNL     1       5.415  45.101  54.115  1.00  0.00     0.012 A 
ATOM     19  C   UNL     1       6.468  45.406  51.932  1.00  0.00     0.016 A 
ATOM     20  C   UNL     1       6.298  46.036  54.679  1.00  0.00     0.047 A 
ATOM     21  C   UNL     1       7.330  46.330  52.524  1.00  0.00    -0.002 A 
ATOM     22  C   UNL     1       7.245  46.631  53.850  1.00  0.00     0.122 A 
ATOM     23  C   UNL     1       8.429  47.109  51.897  1.00  0.00     0.081 C 
ATOM     24  O   UNL     1       8.192  47.562  54.218  1.00  0.00    -0.493 OA
ATOM     25  C   UNL     1       8.981  47.932  53.087  1.00  0.00     0.234 C 
ENDBRANCH   5  17
TORSDOF 3
ENDMDL
