ligand_75_conformer_4_docked
     RDKit          3D

 51 56  0  0  0  0  0  0  0  0999 V2000
    7.0960   43.5890   48.8870 O   0  0  0  0  0  0  0  0  0  0  0  0
    6.5270   43.9270   49.9580 C   0  0  0  0  0  0  0  0  0  0  0  0
    5.2830   43.4530   50.2730 N   0  0  0  0  0  0  0  0  0  0  0  0
    4.6530   43.8180   51.4430 C   0  0  0  0  0  0  0  0  0  0  0  0
    3.2730   43.3150   51.7560 C   0  0  0  0  0  0  0  0  0  0  0  0
    2.7840   43.9180   53.0110 N   0  0  0  0  0  0  0  0  0  0  0  0
    2.4620   45.3480   52.8280 C   0  0  0  0  0  0  0  0  0  0  0  0
    2.2080   46.0240   54.1900 C   0  0  0  0  0  0  0  0  0  0  0  0
    1.7700   45.0140   55.2700 C   0  0  0  0  0  0  0  0  0  0  0  0
    1.0770   45.7210   56.4030 C   0  0  0  0  0  0  0  0  0  0  0  0
   -0.2500   46.0270   56.3960 N   0  0  0  0  0  0  0  0  0  0  0  0
   -0.4070   46.6930   57.5520 C   0  0  0  0  0  0  0  0  0  0  0  0
   -1.5790   47.2450   58.0650 C   0  0  0  0  0  0  0  0  0  0  0  0
   -1.5000   47.9140   59.3020 C   0  0  0  0  0  0  0  0  0  0  0  0
   -0.2650   48.0130   59.9850 C   0  0  0  0  0  0  0  0  0  0  0  0
    0.9000   47.4450   59.4360 C   0  0  0  0  0  0  0  0  0  0  0  0
    0.7810   46.7900   58.2130 C   0  0  0  0  0  0  0  0  0  0  0  0
    1.7350   46.1830   57.4970 N   0  0  0  0  0  0  0  0  0  0  0  0
    0.8790   43.9200   54.6590 C   0  0  0  0  0  0  0  0  0  0  0  0
    1.6020   43.1780   53.5120 C   0  0  0  0  0  0  0  0  0  0  0  0
    5.2610   44.6770   52.3160 N   0  0  0  0  0  0  0  0  0  0  0  0
    6.4910   45.1420   52.0000 C   0  0  0  0  0  0  0  0  0  0  0  0
    7.1390   44.7930   50.8500 C   0  0  0  0  0  0  0  0  0  0  0  0
    8.3180   45.3820   50.7720 O   0  0  0  0  0  0  0  0  0  0  0  0
    8.4390   46.1120   51.8670 C   0  0  0  0  0  0  0  0  0  0  0  0
    9.5130   46.9180   52.2380 C   0  0  0  0  0  0  0  0  0  0  0  0
    9.4240   47.6150   53.4590 C   0  0  0  0  0  0  0  0  0  0  0  0
    8.2750   47.4920   54.2770 C   0  0  0  0  0  0  0  0  0  0  0  0
    7.2010   46.6720   53.8830 C   0  0  0  0  0  0  0  0  0  0  0  0
    7.3210   45.9970   52.6720 C   0  0  0  0  0  0  0  0  0  0  0  0
    4.8050   42.8050   49.6060 H   0  0  0  0  0  0  0  0  0  0  0  0
    2.5930   43.5841   50.9343 H   0  0  0  0  0  0  0  0  0  0  0  0
    3.3069   42.2217   51.8721 H   0  0  0  0  0  0  0  0  0  0  0  0
    3.3048   45.8475   52.3278 H   0  0  0  0  0  0  0  0  0  0  0  0
    1.5527   45.4318   52.2147 H   0  0  0  0  0  0  0  0  0  0  0  0
    3.1353   46.5153   54.5199 H   0  0  0  0  0  0  0  0  0  0  0  0
    1.3937   46.7518   54.0587 H   0  0  0  0  0  0  0  0  0  0  0  0
    2.6662   44.5241   55.6785 H   0  0  0  0  0  0  0  0  0  0  0  0
   -2.5325   47.1613   57.5230 H   0  0  0  0  0  0  0  0  0  0  0  0
   -2.4041   48.3623   59.7397 H   0  0  0  0  0  0  0  0  0  0  0  0
   -0.2149   48.5370   60.9509 H   0  0  0  0  0  0  0  0  0  0  0  0
    1.8680   47.5159   59.9536 H   0  0  0  0  0  0  0  0  0  0  0  0
    2.7510   46.0960   57.7230 H   0  0  0  0  0  0  0  0  0  0  0  0
    0.6140   43.1952   55.4429 H   0  0  0  0  0  0  0  0  0  0  0  0
   -0.0224   44.3978   54.2477 H   0  0  0  0  0  0  0  0  0  0  0  0
    1.9316   42.1954   53.8806 H   0  0  0  0  0  0  0  0  0  0  0  0
    0.8915   43.0807   52.6779 H   0  0  0  0  0  0  0  0  0  0  0  0
   10.4028   47.0074   51.5975 H   0  0  0  0  0  0  0  0  0  0  0  0
   10.2548   48.2607   53.7798 H   0  0  0  0  0  0  0  0  0  0  0  0
    8.2212   48.0418   55.2282 H   0  0  0  0  0  0  0  0  0  0  0  0
    6.3017   46.5687   54.5080 H   0  0  0  0  0  0  0  0  0  0  0  0
  1  2  2  0
  2  3  1  0
  3  4  1  0
  4  5  1  0
  5  6  1  0
  6  7  1  0
  7  8  1  0
  8  9  1  0
  9 10  1  0
 10 11  2  0
 11 12  1  0
 12 13  2  0
 13 14  1  0
 14 15  2  0
 15 16  1  0
 16 17  2  0
 17 18  1  0
  9 19  1  0
 19 20  1  0
  4 21  2  0
 21 22  1  0
 22 23  2  0
 23 24  1  0
 24 25  1  0
 25 26  2  0
 26 27  1  0
 27 28  2  0
 28 29  1  0
 29 30  2  0
 23  2  1  0
 30 25  1  0
 20  6  1  0
 30 22  1  0
 18 10  1  0
 17 12  1  0
  3 31  1  0
  5 32  1  0
  5 33  1  0
  7 34  1  0
  7 35  1  0
  8 36  1  0
  8 37  1  0
  9 38  1  0
 13 39  1  0
 14 40  1  0
 15 41  1  0
 16 42  1  0
 18 43  1  0
 19 44  1  0
 19 45  1  0
 20 46  1  0
 20 47  1  0
 26 48  1  0
 27 49  1  0
 28 50  1  0
 29 51  1  0
M  END
>  <meeko>  (1) 
{"is_sidechain": [false], "free_energy": -10.257, "intermolecular_energy": -12.056, "internal_energy": -0.147}

$$$$
ligand_75_conformer_4_docked
     RDKit          3D

 51 56  0  0  0  0  0  0  0  0999 V2000
   -3.8520   45.5920   54.9980 O   0  0  0  0  0  0  0  0  0  0  0  0
   -2.6100   45.4930   55.1800 C   0  0  0  0  0  0  0  0  0  0  0  0
   -1.8230   44.8080   54.2950 N   0  0  0  0  0  0  0  0  0  0  0  0
   -0.4620   44.6950   54.4860 C   0  0  0  0  0  0  0  0  0  0  0  0
    0.3810   43.9110   53.5230 C   0  0  0  0  0  0  0  0  0  0  0  0
    1.7750   44.3940   53.5580 N   0  0  0  0  0  0  0  0  0  0  0  0
    2.6660   43.5170   52.7700 C   0  0  0  0  0  0  0  0  0  0  0  0
    4.1430   43.8760   53.0270 C   0  0  0  0  0  0  0  0  0  0  0  0
    4.3160   45.3310   53.5060 C   0  0  0  0  0  0  0  0  0  0  0  0
    5.7290   45.7960   53.2830 C   0  0  0  0  0  0  0  0  0  0  0  0
    6.3740   45.6850   52.0890 N   0  0  0  0  0  0  0  0  0  0  0  0
    7.6010   46.1580   52.3690 C   0  0  0  0  0  0  0  0  0  0  0  0
    8.6860   46.2790   51.5040 C   0  0  0  0  0  0  0  0  0  0  0  0
    9.8860   46.7950   52.0280 C   0  0  0  0  0  0  0  0  0  0  0  0
    9.9700   47.1710   53.3900 C   0  0  0  0  0  0  0  0  0  0  0  0
    8.8530   47.0330   54.2370 C   0  0  0  0  0  0  0  0  0  0  0  0
    7.6840   46.5210   53.6800 C   0  0  0  0  0  0  0  0  0  0  0  0
    6.5070   46.2950   54.2770 N   0  0  0  0  0  0  0  0  0  0  0  0
    3.3010   46.2550   52.8110 C   0  0  0  0  0  0  0  0  0  0  0  0
    1.8490   45.7890   53.0630 C   0  0  0  0  0  0  0  0  0  0  0  0
    0.1310   45.2640   55.5800 N   0  0  0  0  0  0  0  0  0  0  0  0
   -0.6520   45.9400   56.4500 C   0  0  0  0  0  0  0  0  0  0  0  0
   -2.0010   46.0710   56.2830 C   0  0  0  0  0  0  0  0  0  0  0  0
   -2.5370   46.7670   57.2670 O   0  0  0  0  0  0  0  0  0  0  0  0
   -1.5410   47.0910   58.0740 C   0  0  0  0  0  0  0  0  0  0  0  0
   -1.6090   47.8260   59.2550 C   0  0  0  0  0  0  0  0  0  0  0  0
   -0.4110   48.0510   59.9620 C   0  0  0  0  0  0  0  0  0  0  0  0
    0.8180   47.5410   59.4780 C   0  0  0  0  0  0  0  0  0  0  0  0
    0.8630   46.8000   58.2820 C   0  0  0  0  0  0  0  0  0  0  0  0
   -0.3380   46.5970   57.6080 C   0  0  0  0  0  0  0  0  0  0  0  0
   -2.2690   44.3600   53.4620 H   0  0  0  0  0  0  0  0  0  0  0  0
    0.3577   42.8472   53.8019 H   0  0  0  0  0  0  0  0  0  0  0  0
   -0.0191   44.0409   52.5066 H   0  0  0  0  0  0  0  0  0  0  0  0
    2.4923   42.4702   53.0599 H   0  0  0  0  0  0  0  0  0  0  0  0
    2.4471   43.6560   51.7010 H   0  0  0  0  0  0  0  0  0  0  0  0
    4.5426   43.2000   53.7973 H   0  0  0  0  0  0  0  0  0  0  0  0
    4.6862   43.7675   52.0767 H   0  0  0  0  0  0  0  0  0  0  0  0
    4.1172   45.3715   54.5871 H   0  0  0  0  0  0  0  0  0  0  0  0
    8.6077   45.9816   50.4479 H   0  0  0  0  0  0  0  0  0  0  0  0
   10.7641   46.9068   51.3750 H   0  0  0  0  0  0  0  0  0  0  0  0
   10.9128   47.5732   53.7892 H   0  0  0  0  0  0  0  0  0  0  0  0
    8.9023   47.3188   55.2981 H   0  0  0  0  0  0  0  0  0  0  0  0
    6.2530   46.4550   55.2770 H   0  0  0  0  0  0  0  0  0  0  0  0
    3.4217   47.2765   53.2007 H   0  0  0  0  0  0  0  0  0  0  0  0
    3.4910   46.2253   51.7279 H   0  0  0  0  0  0  0  0  0  0  0  0
    1.3909   46.4528   53.8110 H   0  0  0  0  0  0  0  0  0  0  0  0
    1.3149   45.8300   52.1022 H   0  0  0  0  0  0  0  0  0  0  0  0
   -2.5679   48.2186   59.6243 H   0  0  0  0  0  0  0  0  0  0  0  0
   -0.4308   48.6280   60.8983 H   0  0  0  0  0  0  0  0  0  0  0  0
    1.7449   47.7253   60.0410 H   0  0  0  0  0  0  0  0  0  0  0  0
    1.8105   46.3970   57.8950 H   0  0  0  0  0  0  0  0  0  0  0  0
  1  2  2  0
  2  3  1  0
  3  4  1  0
  4  5  1  0
  5  6  1  0
  6  7  1  0
  7  8  1  0
  8  9  1  0
  9 10  1  0
 10 11  2  0
 11 12  1  0
 12 13  2  0
 13 14  1  0
 14 15  2  0
 15 16  1  0
 16 17  2  0
 17 18  1  0
  9 19  1  0
 19 20  1  0
  4 21  2  0
 21 22  1  0
 22 23  2  0
 23 24  1  0
 24 25  1  0
 25 26  2  0
 26 27  1  0
 27 28  2  0
 28 29  1  0
 29 30  2  0
 23  2  1  0
 30 25  1  0
 20  6  1  0
 30 22  1  0
 18 10  1  0
 17 12  1  0
  3 31  1  0
  5 32  1  0
  5 33  1  0
  7 34  1  0
  7 35  1  0
  8 36  1  0
  8 37  1  0
  9 38  1  0
 13 39  1  0
 14 40  1  0
 15 41  1  0
 16 42  1  0
 18 43  1  0
 19 44  1  0
 19 45  1  0
 20 46  1  0
 20 47  1  0
 26 48  1  0
 27 49  1  0
 28 50  1  0
 29 51  1  0
M  END
>  <meeko>  (2) 
{"is_sidechain": [false], "free_energy": -9.837, "intermolecular_energy": -11.418, "internal_energy": -0.292}

$$$$
ligand_75_conformer_4_docked
     RDKit          3D

 51 56  0  0  0  0  0  0  0  0999 V2000
    8.7870   44.1360   48.8210 O   0  0  0  0  0  0  0  0  0  0  0  0
    7.9120   44.3270   49.7060 C   0  0  0  0  0  0  0  0  0  0  0  0
    6.6700   43.7620   49.6000 N   0  0  0  0  0  0  0  0  0  0  0  0
    5.7060   43.9660   50.5630 C   0  0  0  0  0  0  0  0  0  0  0  0
    4.3380   43.3660   50.4130 C   0  0  0  0  0  0  0  0  0  0  0  0
    3.4900   43.7380   51.5620 N   0  0  0  0  0  0  0  0  0  0  0  0
    2.4480   44.7080   51.1670 C   0  0  0  0  0  0  0  0  0  0  0  0
    1.7460   45.2840   52.4120 C   0  0  0  0  0  0  0  0  0  0  0  0
    1.8470   44.3420   53.6280 C   0  0  0  0  0  0  0  0  0  0  0  0
    0.7840   44.6710   54.6410 C   0  0  0  0  0  0  0  0  0  0  0  0
   -0.3840   43.9790   54.7520 N   0  0  0  0  0  0  0  0  0  0  0  0
   -1.0350   44.6480   55.7190 C   0  0  0  0  0  0  0  0  0  0  0  0
   -2.2950   44.3740   56.2450 C   0  0  0  0  0  0  0  0  0  0  0  0
   -2.7830   45.2280   57.2540 C   0  0  0  0  0  0  0  0  0  0  0  0
   -2.0070   46.3220   57.7030 C   0  0  0  0  0  0  0  0  0  0  0  0
   -0.7370   46.5710   57.1460 C   0  0  0  0  0  0  0  0  0  0  0  0
   -0.2890   45.7030   56.1540 C   0  0  0  0  0  0  0  0  0  0  0  0
    0.8660   45.7360   55.4780 N   0  0  0  0  0  0  0  0  0  0  0  0
    1.7670   42.8720   53.1830 C   0  0  0  0  0  0  0  0  0  0  0  0
    2.8750   42.5310   52.1620 C   0  0  0  0  0  0  0  0  0  0  0  0
    5.9710   44.7540   51.6490 N   0  0  0  0  0  0  0  0  0  0  0  0
    7.2000   45.3090   51.7500 C   0  0  0  0  0  0  0  0  0  0  0  0
    8.1750   45.1200   50.8120 C   0  0  0  0  0  0  0  0  0  0  0  0
    9.2770   45.7700   51.1340 O   0  0  0  0  0  0  0  0  0  0  0  0
    9.0230   46.3810   52.2780 C   0  0  0  0  0  0  0  0  0  0  0  0
    9.8810   47.1930   53.0170 C   0  0  0  0  0  0  0  0  0  0  0  0
    9.3930   47.7470   54.2170 C   0  0  0  0  0  0  0  0  0  0  0  0
    8.0720   47.4800   54.6500 C   0  0  0  0  0  0  0  0  0  0  0  0
    7.2230   46.6570   53.8880 C   0  0  0  0  0  0  0  0  0  0  0  0
    7.7350   46.1250   52.7080 C   0  0  0  0  0  0  0  0  0  0  0  0
    6.4540   43.1680   48.7660 H   0  0  0  0  0  0  0  0  0  0  0  0
    3.8776   43.7382   49.4859 H   0  0  0  0  0  0  0  0  0  0  0  0
    4.4287   42.2705   50.3735 H   0  0  0  0  0  0  0  0  0  0  0  0
    2.9134   45.5289   50.6017 H   0  0  0  0  0  0  0  0  0  0  0  0
    1.7014   44.1937   50.5440 H   0  0  0  0  0  0  0  0  0  0  0  0
    2.2144   46.2454   52.6693 H   0  0  0  0  0  0  0  0  0  0  0  0
    0.6802   45.4088   52.1702 H   0  0  0  0  0  0  0  0  0  0  0  0
    2.8250   44.4917   54.1087 H   0  0  0  0  0  0  0  0  0  0  0  0
   -2.8886   43.5206   55.8853 H   0  0  0  0  0  0  0  0  0  0  0  0
   -3.7735   45.0427   57.6952 H   0  0  0  0  0  0  0  0  0  0  0  0
   -2.3973   46.9822   58.4916 H   0  0  0  0  0  0  0  0  0  0  0  0
   -0.1226   47.4192   57.4823 H   0  0  0  0  0  0  0  0  0  0  0  0
    1.6430   46.4280   55.5680 H   0  0  0  0  0  0  0  0  0  0  0  0
    1.8813   42.2244   54.0648 H   0  0  0  0  0  0  0  0  0  0  0  0
    0.7912   42.7084   52.7024 H   0  0  0  0  0  0  0  0  0  0  0  0
    3.6592   41.9535   52.6733 H   0  0  0  0  0  0  0  0  0  0  0  0
    2.4111   41.9546   51.3480 H   0  0  0  0  0  0  0  0  0  0  0  0
   10.9066   47.3950   52.6744 H   0  0  0  0  0  0  0  0  0  0  0  0
   10.0448   48.3932   54.8233 H   0  0  0  0  0  0  0  0  0  0  0  0
    7.7065   47.9196   55.5898 H   0  0  0  0  0  0  0  0  0  0  0  0
    6.1940   46.4421   54.2122 H   0  0  0  0  0  0  0  0  0  0  0  0
  1  2  2  0
  2  3  1  0
  3  4  1  0
  4  5  1  0
  5  6  1  0
  6  7  1  0
  7  8  1  0
  8  9  1  0
  9 10  1  0
 10 11  2  0
 11 12  1  0
 12 13  2  0
 13 14  1  0
 14 15  2  0
 15 16  1  0
 16 17  2  0
 17 18  1  0
  9 19  1  0
 19 20  1  0
  4 21  2  0
 21 22  1  0
 22 23  2  0
 23 24  1  0
 24 25  1  0
 25 26  2  0
 26 27  1  0
 27 28  2  0
 28 29  1  0
 29 30  2  0
 23  2  1  0
 30 25  1  0
 20  6  1  0
 30 22  1  0
 18 10  1  0
 17 12  1  0
  3 31  1  0
  5 32  1  0
  5 33  1  0
  7 34  1  0
  7 35  1  0
  8 36  1  0
  8 37  1  0
  9 38  1  0
 13 39  1  0
 14 40  1  0
 15 41  1  0
 16 42  1  0
 18 43  1  0
 19 44  1  0
 19 45  1  0
 20 46  1  0
 20 47  1  0
 26 48  1  0
 27 49  1  0
 28 50  1  0
 29 51  1  0
M  END
>  <meeko>  (3) 
{"is_sidechain": [false], "free_energy": -9.692, "intermolecular_energy": -10.944, "internal_energy": -0.594}

$$$$
ligand_75_conformer_4_docked
     RDKit          3D

 51 56  0  0  0  0  0  0  0  0999 V2000
   -2.9980   45.8260   50.6100 O   0  0  0  0  0  0  0  0  0  0  0  0
   -2.1760   45.2380   51.3610 C   0  0  0  0  0  0  0  0  0  0  0  0
   -1.0920   44.5850   50.8410 N   0  0  0  0  0  0  0  0  0  0  0  0
   -0.1870   43.9390   51.6550 C   0  0  0  0  0  0  0  0  0  0  0  0
    0.9790   43.1990   51.0650 C   0  0  0  0  0  0  0  0  0  0  0  0
    2.2460   43.8150   51.5040 N   0  0  0  0  0  0  0  0  0  0  0  0
    3.3970   42.9350   51.2140 C   0  0  0  0  0  0  0  0  0  0  0  0
    4.6690   43.4630   51.9050 C   0  0  0  0  0  0  0  0  0  0  0  0
    4.5940   44.9770   52.1880 C   0  0  0  0  0  0  0  0  0  0  0  0
    5.9720   45.5440   52.3970 C   0  0  0  0  0  0  0  0  0  0  0  0
    6.9530   45.4940   51.4540 N   0  0  0  0  0  0  0  0  0  0  0  0
    8.0020   46.0490   52.0870 C   0  0  0  0  0  0  0  0  0  0  0  0
    9.2860   46.2570   51.5880 C   0  0  0  0  0  0  0  0  0  0  0  0
   10.2320   46.8510   52.4450 C   0  0  0  0  0  0  0  0  0  0  0  0
    9.8740   47.2150   53.7650 C   0  0  0  0  0  0  0  0  0  0  0  0
    8.5670   46.9870   54.2370 C   0  0  0  0  0  0  0  0  0  0  0  0
    7.6590   46.4010   53.3580 C   0  0  0  0  0  0  0  0  0  0  0  0
    6.3770   46.0850   53.5740 N   0  0  0  0  0  0  0  0  0  0  0  0
    3.8510   45.7040   51.0550 C   0  0  0  0  0  0  0  0  0  0  0  0
    2.4270   45.1370   50.8590 C   0  0  0  0  0  0  0  0  0  0  0  0
   -0.3640   43.9290   53.0120 N   0  0  0  0  0  0  0  0  0  0  0  0
   -1.4370   44.5760   53.5200 C   0  0  0  0  0  0  0  0  0  0  0  0
   -2.3450   45.2280   52.7370 C   0  0  0  0  0  0  0  0  0  0  0  0
   -3.3000   45.7720   53.4670 O   0  0  0  0  0  0  0  0  0  0  0  0
   -3.0150   45.4770   54.7240 C   0  0  0  0  0  0  0  0  0  0  0  0
   -3.7320   45.8320   55.8640 C   0  0  0  0  0  0  0  0  0  0  0  0
   -3.2400   45.4030   57.1130 C   0  0  0  0  0  0  0  0  0  0  0  0
   -2.0530   44.6360   57.1950 C   0  0  0  0  0  0  0  0  0  0  0  0
   -1.3440   44.2890   56.0300 C   0  0  0  0  0  0  0  0  0  0  0  0
   -1.8560   44.7290   54.8130 C   0  0  0  0  0  0  0  0  0  0  0  0
   -0.9550   44.5770   49.8040 H   0  0  0  0  0  0  0  0  0  0  0  0
    0.9501   42.1507   51.3969 H   0  0  0  0  0  0  0  0  0  0  0  0
    0.9172   43.2464   49.9678 H   0  0  0  0  0  0  0  0  0  0  0  0
    3.1794   41.9216   51.5822 H   0  0  0  0  0  0  0  0  0  0  0  0
    3.5649   42.9162   50.1270 H   0  0  0  0  0  0  0  0  0  0  0  0
    4.8008   42.9307   52.8586 H   0  0  0  0  0  0  0  0  0  0  0  0
    5.5179   43.2883   51.2276 H   0  0  0  0  0  0  0  0  0  0  0  0
    4.0231   45.1338   53.1151 H   0  0  0  0  0  0  0  0  0  0  0  0
    9.5514   45.9673   50.5605 H   0  0  0  0  0  0  0  0  0  0  0  0
   11.2558   47.0333   52.0864 H   0  0  0  0  0  0  0  0  0  0  0  0
   10.6210   47.6787   54.4260 H   0  0  0  0  0  0  0  0  0  0  0  0
    8.2741   47.2613   55.2612 H   0  0  0  0  0  0  0  0  0  0  0  0
    5.8220   46.2130   54.4500 H   0  0  0  0  0  0  0  0  0  0  0  0
    3.7794   46.7734   51.3026 H   0  0  0  0  0  0  0  0  0  0  0  0
    4.4138   45.5560   50.1215 H   0  0  0  0  0  0  0  0  0  0  0  0
    1.7039   45.8429   51.2935 H   0  0  0  0  0  0  0  0  0  0  0  0
    2.2667   45.0053   49.7787 H   0  0  0  0  0  0  0  0  0  0  0  0
   -4.6534   46.4285   55.7918 H   0  0  0  0  0  0  0  0  0  0  0  0
   -3.7832   45.6665   58.0325 H   0  0  0  0  0  0  0  0  0  0  0  0
   -1.6818   44.3086   58.1774 H   0  0  0  0  0  0  0  0  0  0  0  0
   -0.4208   43.6930   56.0794 H   0  0  0  0  0  0  0  0  0  0  0  0
  1  2  2  0
  2  3  1  0
  3  4  1  0
  4  5  1  0
  5  6  1  0
  6  7  1  0
  7  8  1  0
  8  9  1  0
  9 10  1  0
 10 11  2  0
 11 12  1  0
 12 13  2  0
 13 14  1  0
 14 15  2  0
 15 16  1  0
 16 17  2  0
 17 18  1  0
  9 19  1  0
 19 20  1  0
  4 21  2  0
 21 22  1  0
 22 23  2  0
 23 24  1  0
 24 25  1  0
 25 26  2  0
 26 27  1  0
 27 28  2  0
 28 29  1  0
 29 30  2  0
 23  2  1  0
 30 25  1  0
 20  6  1  0
 30 22  1  0
 18 10  1  0
 17 12  1  0
  3 31  1  0
  5 32  1  0
  5 33  1  0
  7 34  1  0
  7 35  1  0
  8 36  1  0
  8 37  1  0
  9 38  1  0
 13 39  1  0
 14 40  1  0
 15 41  1  0
 16 42  1  0
 18 43  1  0
 19 44  1  0
 19 45  1  0
 20 46  1  0
 20 47  1  0
 26 48  1  0
 27 49  1  0
 28 50  1  0
 29 51  1  0
M  END
>  <meeko>  (4) 
{"is_sidechain": [false], "free_energy": -9.609, "intermolecular_energy": -10.908, "internal_energy": -0.533}

$$$$
ligand_75_conformer_4_docked
     RDKit          3D

 51 56  0  0  0  0  0  0  0  0999 V2000
    8.1420   47.9080   54.0500 O   0  0  0  0  0  0  0  0  0  0  0  0
    7.2340   47.1240   53.6680 C   0  0  0  0  0  0  0  0  0  0  0  0
    6.0490   47.0370   54.3480 N   0  0  0  0  0  0  0  0  0  0  0  0
    5.0500   46.1820   53.9360 C   0  0  0  0  0  0  0  0  0  0  0  0
    3.7700   46.0730   54.7140 C   0  0  0  0  0  0  0  0  0  0  0  0
    2.7580   45.3410   53.9280 N   0  0  0  0  0  0  0  0  0  0  0  0
    1.7400   44.7270   54.8060 C   0  0  0  0  0  0  0  0  0  0  0  0
    0.8500   43.7570   54.0050 C   0  0  0  0  0  0  0  0  0  0  0  0
    0.8220   44.0960   52.5010 C   0  0  0  0  0  0  0  0  0  0  0  0
   -0.3820   43.4810   51.8420 C   0  0  0  0  0  0  0  0  0  0  0  0
   -1.1110   42.4770   52.4040 N   0  0  0  0  0  0  0  0  0  0  0  0
   -2.0260   42.2090   51.4560 C   0  0  0  0  0  0  0  0  0  0  0  0
   -3.0420   41.2560   51.4970 C   0  0  0  0  0  0  0  0  0  0  0  0
   -3.8810   41.1460   50.3720 C   0  0  0  0  0  0  0  0  0  0  0  0
   -3.6830   41.9800   49.2460 C   0  0  0  0  0  0  0  0  0  0  0  0
   -2.6450   42.9310   49.2380 C   0  0  0  0  0  0  0  0  0  0  0  0
   -1.8380   43.0120   50.3710 C   0  0  0  0  0  0  0  0  0  0  0  0
   -0.7970   43.8220   50.5960 N   0  0  0  0  0  0  0  0  0  0  0  0
    0.8660   45.6190   52.2880 C   0  0  0  0  0  0  0  0  0  0  0  0
    2.1180   46.2450   52.9440 C   0  0  0  0  0  0  0  0  0  0  0  0
    5.2280   45.3900   52.8350 N   0  0  0  0  0  0  0  0  0  0  0  0
    6.4000   45.4820   52.1670 C   0  0  0  0  0  0  0  0  0  0  0  0
    7.4050   46.3230   52.5500 C   0  0  0  0  0  0  0  0  0  0  0  0
    8.4440   46.2230   51.7420 O   0  0  0  0  0  0  0  0  0  0  0  0
    8.1170   45.3200   50.8340 C   0  0  0  0  0  0  0  0  0  0  0  0
    8.8910   44.8700   49.7660 C   0  0  0  0  0  0  0  0  0  0  0  0
    8.3370   43.8910   48.9180 C   0  0  0  0  0  0  0  0  0  0  0  0
    7.0350   43.3870   49.1510 C   0  0  0  0  0  0  0  0  0  0  0  0
    6.2710   43.8560   50.2350 C   0  0  0  0  0  0  0  0  0  0  0  0
    6.8460   44.8230   51.0540 C   0  0  0  0  0  0  0  0  0  0  0  0
    5.9090   47.6290   55.1980 H   0  0  0  0  0  0  0  0  0  0  0  0
    3.9605   45.5337   55.6536 H   0  0  0  0  0  0  0  0  0  0  0  0
    3.3943   47.0837   54.9313 H   0  0  0  0  0  0  0  0  0  0  0  0
    2.2437   44.1739   55.6124 H   0  0  0  0  0  0  0  0  0  0  0  0
    1.1085   45.5224   55.2285 H   0  0  0  0  0  0  0  0  0  0  0  0
    1.2380   42.7354   54.1303 H   0  0  0  0  0  0  0  0  0  0  0  0
   -0.1767   43.8464   54.3896 H   0  0  0  0  0  0  0  0  0  0  0  0
    1.7173   43.6670   52.0274 H   0  0  0  0  0  0  0  0  0  0  0  0
   -3.1834   40.6122   52.3777 H   0  0  0  0  0  0  0  0  0  0  0  0
   -4.6958   40.4070   50.3681 H   0  0  0  0  0  0  0  0  0  0  0  0
   -4.3440   41.8846   48.3719 H   0  0  0  0  0  0  0  0  0  0  0  0
   -2.4773   43.5855   48.3700 H   0  0  0  0  0  0  0  0  0  0  0  0
   -0.3930   44.5420   49.9550 H   0  0  0  0  0  0  0  0  0  0  0  0
    0.8850   45.8289   51.2084 H   0  0  0  0  0  0  0  0  0  0  0  0
   -0.0266   46.0597   52.7560 H   0  0  0  0  0  0  0  0  0  0  0  0
    2.8480   46.4811   52.1557 H   0  0  0  0  0  0  0  0  0  0  0  0
    1.7955   47.1485   53.4822 H   0  0  0  0  0  0  0  0  0  0  0  0
    9.9020   45.2665   49.5908 H   0  0  0  0  0  0  0  0  0  0  0  0
    8.9222   43.5144   48.0661 H   0  0  0  0  0  0  0  0  0  0  0  0
    6.6174   42.6226   48.4792 H   0  0  0  0  0  0  0  0  0  0  0  0
    5.2580   43.4731   50.4279 H   0  0  0  0  0  0  0  0  0  0  0  0
  1  2  2  0
  2  3  1  0
  3  4  1  0
  4  5  1  0
  5  6  1  0
  6  7  1  0
  7  8  1  0
  8  9  1  0
  9 10  1  0
 10 11  2  0
 11 12  1  0
 12 13  2  0
 13 14  1  0
 14 15  2  0
 15 16  1  0
 16 17  2  0
 17 18  1  0
  9 19  1  0
 19 20  1  0
  4 21  2  0
 21 22  1  0
 22 23  2  0
 23 24  1  0
 24 25  1  0
 25 26  2  0
 26 27  1  0
 27 28  2  0
 28 29  1  0
 29 30  2  0
 23  2  1  0
 30 25  1  0
 20  6  1  0
 30 22  1  0
 18 10  1  0
 17 12  1  0
  3 31  1  0
  5 32  1  0
  5 33  1  0
  7 34  1  0
  7 35  1  0
  8 36  1  0
  8 37  1  0
  9 38  1  0
 13 39  1  0
 14 40  1  0
 15 41  1  0
 16 42  1  0
 18 43  1  0
 19 44  1  0
 19 45  1  0
 20 46  1  0
 20 47  1  0
 26 48  1  0
 27 49  1  0
 28 50  1  0
 29 51  1  0
M  END
>  <meeko>  (5) 
{"is_sidechain": [false], "free_energy": -9.272, "intermolecular_energy": -10.628, "internal_energy": -0.417}

$$$$
