ligand_48_conformer_5_docked
     RDKit          3D

 52 55  0  0  0  0  0  0  0  0999 V2000
    0.6920   45.4660   57.4390 C   0  0  0  0  0  0  0  0  0  0  0  0
   -0.3010   45.9950   56.3990 C   0  0  0  0  0  0  0  0  0  0  0  0
   -1.4770   46.7310   57.0480 C   0  0  0  0  0  0  0  0  0  0  0  0
   -0.7740   44.9090   55.4620 C   0  0  0  0  0  0  0  0  0  0  0  0
   -2.0690   44.5220   55.3900 N   0  0  0  0  0  0  0  0  0  0  0  0
   -2.1510   43.5460   54.4930 N   0  0  0  0  0  0  0  0  0  0  0  0
   -0.9020   43.3540   54.0340 C   0  0  0  0  0  0  0  0  0  0  0  0
   -0.5060   42.4160   53.0870 C   0  0  0  0  0  0  0  0  0  0  0  0
    0.8540   42.3700   52.7490 C   0  0  0  0  0  0  0  0  0  0  0  0
    1.7750   43.2580   53.3470 C   0  0  0  0  0  0  0  0  0  0  0  0
    3.1670   43.1860   52.9980 N   0  0  0  0  0  0  0  0  0  0  0  0
    3.8130   44.1500   52.1530 C   0  0  0  0  0  0  0  0  0  0  0  0
    3.1510   44.7000   51.2320 O   0  0  0  0  0  0  0  0  0  0  0  0
    5.2180   44.4530   52.3120 N   0  0  0  0  0  0  0  0  0  0  0  0
    5.7080   44.9820   53.5950 C   0  0  0  0  0  0  0  0  0  0  0  0
    5.1710   46.3940   53.8880 C   0  0  0  0  0  0  0  0  0  0  0  0
    5.9080   47.5120   53.1010 C   0  0  0  0  0  0  0  0  0  0  0  0
    7.3280   47.1080   52.7570 C   0  0  0  0  0  0  0  0  0  0  0  0
    8.3610   47.5000   53.6290 C   0  0  0  0  0  0  0  0  0  0  0  0
    9.6850   47.1480   53.3700 C   0  0  0  0  0  0  0  0  0  0  0  0
   10.0000   46.3850   52.2480 C   0  0  0  0  0  0  0  0  0  0  0  0
    8.9900   45.9680   51.3820 C   0  0  0  0  0  0  0  0  0  0  0  0
    7.6490   46.3250   51.6130 C   0  0  0  0  0  0  0  0  0  0  0  0
    6.5900   45.7580   50.6950 C   0  0  0  0  0  0  0  0  0  0  0  0
    6.1420   44.3710   51.1660 C   0  0  0  0  0  0  0  0  0  0  0  0
    1.3090   44.1710   54.3160 C   0  0  0  0  0  0  0  0  0  0  0  0
   -0.0180   44.1810   54.6110 N   0  0  0  0  0  0  0  0  0  0  0  0
    0.3083   45.6704   58.4495 H   0  0  0  0  0  0  0  0  0  0  0  0
    0.8180   44.3812   57.3071 H   0  0  0  0  0  0  0  0  0  0  0  0
    1.6626   45.9666   57.3071 H   0  0  0  0  0  0  0  0  0  0  0  0
    0.2450   46.7313   55.7909 H   0  0  0  0  0  0  0  0  0  0  0  0
   -1.3860   46.6741   58.1428 H   0  0  0  0  0  0  0  0  0  0  0  0
   -1.4683   47.7851   56.7337 H   0  0  0  0  0  0  0  0  0  0  0  0
   -2.4213   46.2624   56.7337 H   0  0  0  0  0  0  0  0  0  0  0  0
   -1.2329   41.7351   52.6202 H   0  0  0  0  0  0  0  0  0  0  0  0
    1.2071   41.6350   52.0107 H   0  0  0  0  0  0  0  0  0  0  0  0
    3.7080   42.3390   53.2830 H   0  0  0  0  0  0  0  0  0  0  0  0
    5.3867   44.3069   54.4018 H   0  0  0  0  0  0  0  0  0  0  0  0
    6.8046   45.0446   53.5363 H   0  0  0  0  0  0  0  0  0  0  0  0
    4.1047   46.4238   53.6193 H   0  0  0  0  0  0  0  0  0  0  0  0
    5.3368   46.5880   54.9580 H   0  0  0  0  0  0  0  0  0  0  0  0
    5.3588   47.7146   52.1697 H   0  0  0  0  0  0  0  0  0  0  0  0
    5.9495   48.4097   53.7354 H   0  0  0  0  0  0  0  0  0  0  0  0
    8.1209   48.0909   54.5252 H   0  0  0  0  0  0  0  0  0  0  0  0
   10.4829   47.4737   54.0535 H   0  0  0  0  0  0  0  0  0  0  0  0
   11.0459   46.1114   52.0451 H   0  0  0  0  0  0  0  0  0  0  0  0
    9.2449   45.3520   50.5070 H   0  0  0  0  0  0  0  0  0  0  0  0
    5.7217   46.4332   50.6870 H   0  0  0  0  0  0  0  0  0  0  0  0
    7.0147   45.6652   49.6846 H   0  0  0  0  0  0  0  0  0  0  0  0
    5.6339   43.8599   50.3350 H   0  0  0  0  0  0  0  0  0  0  0  0
    7.0349   43.8142   51.4864 H   0  0  0  0  0  0  0  0  0  0  0  0
    2.0031   44.8588   54.8211 H   0  0  0  0  0  0  0  0  0  0  0  0
  1  2  1  0
  2  3  1  0
  2  4  1  0
  4  5  2  0
  5  6  1  0
  6  7  2  0
  7  8  1  0
  8  9  2  0
  9 10  1  0
 10 11  1  0
 11 12  1  0
 12 13  2  0
 12 14  1  0
 14 15  1  0
 15 16  1  0
 16 17  1  0
 17 18  1  0
 18 19  2  0
 19 20  1  0
 20 21  2  0
 21 22  1  0
 22 23  2  0
 23 24  1  0
 24 25  1  0
 10 26  2  0
 26 27  1  0
 27  4  1  0
 27  7  1  0
 25 14  1  0
 23 18  1  0
  1 28  1  0
  1 29  1  0
  1 30  1  0
  2 31  1  0
  3 32  1  0
  3 33  1  0
  3 34  1  0
  8 35  1  0
  9 36  1  0
 11 37  1  0
 15 38  1  0
 15 39  1  0
 16 40  1  0
 16 41  1  0
 17 42  1  0
 17 43  1  0
 19 44  1  0
 20 45  1  0
 21 46  1  0
 22 47  1  0
 24 48  1  0
 24 49  1  0
 25 50  1  0
 25 51  1  0
 26 52  1  0
M  END
>  <meeko>  (1) 
{"is_sidechain": [false], "free_energy": -7.48, "intermolecular_energy": -11.415, "internal_energy": 0.175}

$$$$
ligand_48_conformer_5_docked
     RDKit          3D

 52 55  0  0  0  0  0  0  0  0999 V2000
   -1.8850   43.1000   50.0280 C   0  0  0  0  0  0  0  0  0  0  0  0
   -2.2470   42.2650   51.2610 C   0  0  0  0  0  0  0  0  0  0  0  0
   -3.6910   41.7560   51.2090 C   0  0  0  0  0  0  0  0  0  0  0  0
   -1.9640   43.0030   52.5490 C   0  0  0  0  0  0  0  0  0  0  0  0
   -2.9480   43.4670   53.3530 N   0  0  0  0  0  0  0  0  0  0  0  0
   -2.3750   44.0770   54.3840 N   0  0  0  0  0  0  0  0  0  0  0  0
   -1.0490   43.9760   54.1900 C   0  0  0  0  0  0  0  0  0  0  0  0
   -0.0510   44.4860   55.0130 C   0  0  0  0  0  0  0  0  0  0  0  0
    1.2800   44.2780   54.6250 C   0  0  0  0  0  0  0  0  0  0  0  0
    1.5830   43.5640   53.4440 C   0  0  0  0  0  0  0  0  0  0  0  0
    2.9530   43.3740   53.0560 N   0  0  0  0  0  0  0  0  0  0  0  0
    3.6800   44.3210   52.2590 C   0  0  0  0  0  0  0  0  0  0  0  0
    3.0610   44.9960   51.3930 O   0  0  0  0  0  0  0  0  0  0  0  0
    5.1110   44.4680   52.4010 N   0  0  0  0  0  0  0  0  0  0  0  0
    5.6890   44.7090   53.7340 C   0  0  0  0  0  0  0  0  0  0  0  0
    5.2550   46.0620   54.3240 C   0  0  0  0  0  0  0  0  0  0  0  0
    5.8880   47.2530   53.5990 C   0  0  0  0  0  0  0  0  0  0  0  0
    7.2860   46.9740   53.0810 C   0  0  0  0  0  0  0  0  0  0  0  0
    8.3760   47.2610   53.9230 C   0  0  0  0  0  0  0  0  0  0  0  0
    9.6840   47.0160   53.5060 C   0  0  0  0  0  0  0  0  0  0  0  0
    9.9250   46.4630   52.2500 C   0  0  0  0  0  0  0  0  0  0  0  0
    8.8590   46.1510   51.4080 C   0  0  0  0  0  0  0  0  0  0  0  0
    7.5320   46.4060   51.8010 C   0  0  0  0  0  0  0  0  0  0  0  0
    6.4160   45.9520   50.8870 C   0  0  0  0  0  0  0  0  0  0  0  0
    5.9860   44.5190   51.2160 C   0  0  0  0  0  0  0  0  0  0  0  0
    0.5220   43.0910   52.6440 C   0  0  0  0  0  0  0  0  0  0  0  0
   -0.7530   43.3150   53.0600 N   0  0  0  0  0  0  0  0  0  0  0  0
   -1.4665   44.0653   50.3489 H   0  0  0  0  0  0  0  0  0  0  0  0
   -1.1403   42.5598   49.4250 H   0  0  0  0  0  0  0  0  0  0  0  0
   -2.7884   43.2742   49.4250 H   0  0  0  0  0  0  0  0  0  0  0  0
   -1.5924   41.3811   51.2436 H   0  0  0  0  0  0  0  0  0  0  0  0
   -4.0698   41.6225   52.2330 H   0  0  0  0  0  0  0  0  0  0  0  0
   -4.3186   42.4871   50.6783 H   0  0  0  0  0  0  0  0  0  0  0  0
   -3.7214   40.7930   50.6783 H   0  0  0  0  0  0  0  0  0  0  0  0
   -0.2970   45.0329   55.9352 H   0  0  0  0  0  0  0  0  0  0  0  0
    2.0966   44.6746   55.2462 H   0  0  0  0  0  0  0  0  0  0  0  0
    3.4090   42.4590   53.2730 H   0  0  0  0  0  0  0  0  0  0  0  0
    5.3618   43.9066   54.4115 H   0  0  0  0  0  0  0  0  0  0  0  0
    6.7837   44.7244   53.6278 H   0  0  0  0  0  0  0  0  0  0  0  0
    4.1608   46.1445   54.2475 H   0  0  0  0  0  0  0  0  0  0  0  0
    5.5930   46.0920   55.3703 H   0  0  0  0  0  0  0  0  0  0  0  0
    5.2478   47.5211   52.7456 H   0  0  0  0  0  0  0  0  0  0  0  0
    5.9718   48.0696   54.3313 H   0  0  0  0  0  0  0  0  0  0  0  0
    8.1943   47.6837   54.9222 H   0  0  0  0  0  0  0  0  0  0  0  0
   10.5267   47.2597   54.1696 H   0  0  0  0  0  0  0  0  0  0  0  0
   10.9577   46.2725   51.9226 H   0  0  0  0  0  0  0  0  0  0  0  0
    9.0573   45.7000   50.4245 H   0  0  0  0  0  0  0  0  0  0  0  0
    5.5538   46.6237   51.0108 H   0  0  0  0  0  0  0  0  0  0  0  0
    6.7797   45.9794   49.8492 H   0  0  0  0  0  0  0  0  0  0  0  0
    5.4429   44.1036   50.3543 H   0  0  0  0  0  0  0  0  0  0  0  0
    6.8906   43.9323   51.4337 H   0  0  0  0  0  0  0  0  0  0  0  0
    0.7214   42.5534   51.7053 H   0  0  0  0  0  0  0  0  0  0  0  0
  1  2  1  0
  2  3  1  0
  2  4  1  0
  4  5  2  0
  5  6  1  0
  6  7  2  0
  7  8  1  0
  8  9  2  0
  9 10  1  0
 10 11  1  0
 11 12  1  0
 12 13  2  0
 12 14  1  0
 14 15  1  0
 15 16  1  0
 16 17  1  0
 17 18  1  0
 18 19  2  0
 19 20  1  0
 20 21  2  0
 21 22  1  0
 22 23  2  0
 23 24  1  0
 24 25  1  0
 10 26  2  0
 26 27  1  0
 27  4  1  0
 27  7  1  0
 25 14  1  0
 23 18  1  0
  1 28  1  0
  1 29  1  0
  1 30  1  0
  2 31  1  0
  3 32  1  0
  3 33  1  0
  3 34  1  0
  8 35  1  0
  9 36  1  0
 11 37  1  0
 15 38  1  0
 15 39  1  0
 16 40  1  0
 16 41  1  0
 17 42  1  0
 17 43  1  0
 19 44  1  0
 20 45  1  0
 21 46  1  0
 22 47  1  0
 24 48  1  0
 24 49  1  0
 25 50  1  0
 25 51  1  0
 26 52  1  0
M  END
>  <meeko>  (2) 
{"is_sidechain": [false], "free_energy": -7.246, "intermolecular_energy": -11.043, "internal_energy": 0.159}

$$$$
ligand_48_conformer_5_docked
     RDKit          3D

 52 55  0  0  0  0  0  0  0  0999 V2000
    0.9700   47.1540   59.2260 C   0  0  0  0  0  0  0  0  0  0  0  0
   -0.1850   47.5640   58.3050 C   0  0  0  0  0  0  0  0  0  0  0  0
   -1.2520   48.3740   59.0460 C   0  0  0  0  0  0  0  0  0  0  0  0
   -0.7850   46.3790   57.5860 C   0  0  0  0  0  0  0  0  0  0  0  0
   -1.9670   45.8290   57.9510 N   0  0  0  0  0  0  0  0  0  0  0  0
   -2.2040   44.8040   57.1400 N   0  0  0  0  0  0  0  0  0  0  0  0
   -1.1610   44.7460   56.2940 C   0  0  0  0  0  0  0  0  0  0  0  0
   -0.9730   43.8170   55.2770 C   0  0  0  0  0  0  0  0  0  0  0  0
    0.1950   43.9250   54.5080 C   0  0  0  0  0  0  0  0  0  0  0  0
    1.1310   44.9530   54.7590 C   0  0  0  0  0  0  0  0  0  0  0  0
    2.3270   45.0380   53.9690 N   0  0  0  0  0  0  0  0  0  0  0  0
    2.5310   46.0410   52.9620 C   0  0  0  0  0  0  0  0  0  0  0  0
    1.5380   46.4690   52.3140 O   0  0  0  0  0  0  0  0  0  0  0  0
    3.8580   46.5190   52.6480 N   0  0  0  0  0  0  0  0  0  0  0  0
    4.4770   47.5560   53.4910 C   0  0  0  0  0  0  0  0  0  0  0  0
    5.0130   46.9870   54.8170 C   0  0  0  0  0  0  0  0  0  0  0  0
    6.1950   45.9790   54.6510 C   0  0  0  0  0  0  0  0  0  0  0  0
    7.1550   46.3830   53.5490 C   0  0  0  0  0  0  0  0  0  0  0  0
    8.3270   47.0740   53.9090 C   0  0  0  0  0  0  0  0  0  0  0  0
    9.2520   47.4620   52.9410 C   0  0  0  0  0  0  0  0  0  0  0  0
    9.0340   47.1510   51.6000 C   0  0  0  0  0  0  0  0  0  0  0  0
    7.8910   46.4490   51.2240 C   0  0  0  0  0  0  0  0  0  0  0  0
    6.9350   46.0620   52.1810 C   0  0  0  0  0  0  0  0  0  0  0  0
    5.7680   45.2160   51.7240 C   0  0  0  0  0  0  0  0  0  0  0  0
    4.5450   46.0870   51.4180 C   0  0  0  0  0  0  0  0  0  0  0  0
    0.8880   45.8500   55.8210 C   0  0  0  0  0  0  0  0  0  0  0  0
   -0.2580   45.7080   56.5390 N   0  0  0  0  0  0  0  0  0  0  0  0
    0.6591   47.2644   60.2754 H   0  0  0  0  0  0  0  0  0  0  0  0
    1.2394   46.1053   59.0317 H   0  0  0  0  0  0  0  0  0  0  0  0
    1.8403   47.7981   59.0317 H   0  0  0  0  0  0  0  0  0  0  0  0
    0.2450   48.2237   57.5370 H   0  0  0  0  0  0  0  0  0  0  0  0
   -1.1077   48.2645   60.1310 H   0  0  0  0  0  0  0  0  0  0  0  0
   -1.1644   49.4351   58.7697 H   0  0  0  0  0  0  0  0  0  0  0  0
   -2.2505   48.0044   58.7697 H   0  0  0  0  0  0  0  0  0  0  0  0
   -1.7128   43.0265   55.0826 H   0  0  0  0  0  0  0  0  0  0  0  0
    0.3842   43.2018   53.7011 H   0  0  0  0  0  0  0  0  0  0  0  0
    3.0370   44.2760   54.0570 H   0  0  0  0  0  0  0  0  0  0  0  0
    5.3122   48.0100   52.9375 H   0  0  0  0  0  0  0  0  0  0  0  0
    3.7035   48.3001   53.7320 H   0  0  0  0  0  0  0  0  0  0  0  0
    5.3603   47.8265   55.4371 H   0  0  0  0  0  0  0  0  0  0  0  0
    4.1850   46.4293   55.2789 H   0  0  0  0  0  0  0  0  0  0  0  0
    6.7494   45.9267   55.5996 H   0  0  0  0  0  0  0  0  0  0  0  0
    5.7656   45.0038   54.3780 H   0  0  0  0  0  0  0  0  0  0  0  0
    8.5153   47.3107   54.9666 H   0  0  0  0  0  0  0  0  0  0  0  0
   10.1560   48.0149   53.2362 H   0  0  0  0  0  0  0  0  0  0  0  0
    9.7648   47.4600   50.8382 H   0  0  0  0  0  0  0  0  0  0  0  0
    7.7339   46.1940   50.1656 H   0  0  0  0  0  0  0  0  0  0  0  0
    6.0555   44.6675   50.8149 H   0  0  0  0  0  0  0  0  0  0  0  0
    5.5062   44.5151   52.5303 H   0  0  0  0  0  0  0  0  0  0  0  0
    4.8726   46.9777   50.8618 H   0  0  0  0  0  0  0  0  0  0  0  0
    3.8386   45.4876   50.8249 H   0  0  0  0  0  0  0  0  0  0  0  0
    1.6086   46.6453   56.0623 H   0  0  0  0  0  0  0  0  0  0  0  0
  1  2  1  0
  2  3  1  0
  2  4  1  0
  4  5  2  0
  5  6  1  0
  6  7  2  0
  7  8  1  0
  8  9  2  0
  9 10  1  0
 10 11  1  0
 11 12  1  0
 12 13  2  0
 12 14  1  0
 14 15  1  0
 15 16  1  0
 16 17  1  0
 17 18  1  0
 18 19  2  0
 19 20  1  0
 20 21  2  0
 21 22  1  0
 22 23  2  0
 23 24  1  0
 24 25  1  0
 10 26  2  0
 26 27  1  0
 27  4  1  0
 27  7  1  0
 25 14  1  0
 23 18  1  0
  1 28  1  0
  1 29  1  0
  1 30  1  0
  2 31  1  0
  3 32  1  0
  3 33  1  0
  3 34  1  0
  8 35  1  0
  9 36  1  0
 11 37  1  0
 15 38  1  0
 15 39  1  0
 16 40  1  0
 16 41  1  0
 17 42  1  0
 17 43  1  0
 19 44  1  0
 20 45  1  0
 21 46  1  0
 22 47  1  0
 24 48  1  0
 24 49  1  0
 25 50  1  0
 25 51  1  0
 26 52  1  0
M  END
>  <meeko>  (3) 
{"is_sidechain": [false], "free_energy": -7.193, "intermolecular_energy": -10.898, "internal_energy": 0.096}

$$$$
ligand_48_conformer_5_docked
     RDKit          3D

 52 55  0  0  0  0  0  0  0  0999 V2000
    0.8970   46.0710   57.7880 C   0  0  0  0  0  0  0  0  0  0  0  0
   -0.3120   46.4750   56.9370 C   0  0  0  0  0  0  0  0  0  0  0  0
   -1.4070   47.1450   57.7730 C   0  0  0  0  0  0  0  0  0  0  0  0
   -0.8560   45.3150   56.1360 C   0  0  0  0  0  0  0  0  0  0  0  0
   -2.0950   44.8100   56.3360 N   0  0  0  0  0  0  0  0  0  0  0  0
   -2.2600   43.7970   55.4940 N   0  0  0  0  0  0  0  0  0  0  0  0
   -1.1160   43.7010   54.7950 C   0  0  0  0  0  0  0  0  0  0  0  0
   -0.8290   42.7670   53.8050 C   0  0  0  0  0  0  0  0  0  0  0  0
    0.4340   42.8310   53.1990 C   0  0  0  0  0  0  0  0  0  0  0  0
    1.3660   43.8220   53.5800 C   0  0  0  0  0  0  0  0  0  0  0  0
    2.6600   43.8640   52.9580 N   0  0  0  0  0  0  0  0  0  0  0  0
    3.0640   44.9080   52.0590 C   0  0  0  0  0  0  0  0  0  0  0  0
    2.1970   45.4510   51.3230 O   0  0  0  0  0  0  0  0  0  0  0  0
    4.4510   45.3010   51.9530 N   0  0  0  0  0  0  0  0  0  0  0  0
    5.1010   45.3240   50.6320 C   0  0  0  0  0  0  0  0  0  0  0  0
    6.6070   45.0170   50.7160 C   0  0  0  0  0  0  0  0  0  0  0  0
    7.5200   46.2710   50.6680 C   0  0  0  0  0  0  0  0  0  0  0  0
    8.1560   46.5940   52.0060 C   0  0  0  0  0  0  0  0  0  0  0  0
    9.5600   46.6560   52.0760 C   0  0  0  0  0  0  0  0  0  0  0  0
   10.2010   46.9590   53.2770 C   0  0  0  0  0  0  0  0  0  0  0  0
    9.4530   47.2240   54.4220 C   0  0  0  0  0  0  0  0  0  0  0  0
    8.0610   47.1880   54.3700 C   0  0  0  0  0  0  0  0  0  0  0  0
    7.3920   46.8670   53.1730 C   0  0  0  0  0  0  0  0  0  0  0  0
    5.8820   46.9440   53.1560 C   0  0  0  0  0  0  0  0  0  0  0  0
    5.2610   45.5440   53.1590 C   0  0  0  0  0  0  0  0  0  0  0  0
    1.0170   44.7260   54.6060 C   0  0  0  0  0  0  0  0  0  0  0  0
   -0.2190   44.6260   55.1640 N   0  0  0  0  0  0  0  0  0  0  0  0
    0.6401   46.1569   58.8541 H   0  0  0  0  0  0  0  0  0  0  0  0
    1.1747   45.0313   57.5603 H   0  0  0  0  0  0  0  0  0  0  0  0
    1.7440   46.7349   57.5603 H   0  0  0  0  0  0  0  0  0  0  0  0
    0.0488   47.2242   56.2169 H   0  0  0  0  0  0  0  0  0  0  0  0
   -1.1863   47.0100   58.8421 H   0  0  0  0  0  0  0  0  0  0  0  0
   -1.4417   48.2192   57.5386 H   0  0  0  0  0  0  0  0  0  0  0  0
   -2.3792   46.6869   57.5386 H   0  0  0  0  0  0  0  0  0  0  0  0
   -1.5658   42.0060   53.5083 H   0  0  0  0  0  0  0  0  0  0  0  0
    0.7016   42.1025   52.4194 H   0  0  0  0  0  0  0  0  0  0  0  0
    3.2970   43.0440   53.0800 H   0  0  0  0  0  0  0  0  0  0  0  0
    4.6219   44.5710   49.9890 H   0  0  0  0  0  0  0  0  0  0  0  0
    4.9868   46.3369   50.2186 H   0  0  0  0  0  0  0  0  0  0  0  0
    6.7982   44.4881   51.6614 H   0  0  0  0  0  0  0  0  0  0  0  0
    6.8546   44.4140   49.8299 H   0  0  0  0  0  0  0  0  0  0  0  0
    8.3197   46.0942   49.9336 H   0  0  0  0  0  0  0  0  0  0  0  0
    6.8878   47.1271   50.3896 H   0  0  0  0  0  0  0  0  0  0  0  0
   10.1586   46.4633   51.1735 H   0  0  0  0  0  0  0  0  0  0  0  0
   11.2997   46.9888   53.3203 H   0  0  0  0  0  0  0  0  0  0  0  0
    9.9616   47.4618   55.3679 H   0  0  0  0  0  0  0  0  0  0  0  0
    7.4775   47.4131   55.2749 H   0  0  0  0  0  0  0  0  0  0  0  0
    5.5397   47.4913   54.0467 H   0  0  0  0  0  0  0  0  0  0  0  0
    5.5679   47.4647   52.2394 H   0  0  0  0  0  0  0  0  0  0  0  0
    6.0674   44.7971   53.2025 H   0  0  0  0  0  0  0  0  0  0  0  0
    4.6007   45.4653   54.0353 H   0  0  0  0  0  0  0  0  0  0  0  0
    1.7280   45.4933   54.9462 H   0  0  0  0  0  0  0  0  0  0  0  0
  1  2  1  0
  2  3  1  0
  2  4  1  0
  4  5  2  0
  5  6  1  0
  6  7  2  0
  7  8  1  0
  8  9  2  0
  9 10  1  0
 10 11  1  0
 11 12  1  0
 12 13  2  0
 12 14  1  0
 14 15  1  0
 15 16  1  0
 16 17  1  0
 17 18  1  0
 18 19  2  0
 19 20  1  0
 20 21  2  0
 21 22  1  0
 22 23  2  0
 23 24  1  0
 24 25  1  0
 10 26  2  0
 26 27  1  0
 27  4  1  0
 27  7  1  0
 25 14  1  0
 23 18  1  0
  1 28  1  0
  1 29  1  0
  1 30  1  0
  2 31  1  0
  3 32  1  0
  3 33  1  0
  3 34  1  0
  8 35  1  0
  9 36  1  0
 11 37  1  0
 15 38  1  0
 15 39  1  0
 16 40  1  0
 16 41  1  0
 17 42  1  0
 17 43  1  0
 19 44  1  0
 20 45  1  0
 21 46  1  0
 22 47  1  0
 24 48  1  0
 24 49  1  0
 25 50  1  0
 25 51  1  0
 26 52  1  0
M  END
>  <meeko>  (4) 
{"is_sidechain": [false], "free_energy": -7.12, "intermolecular_energy": -10.841, "internal_energy": 0.15}

$$$$
ligand_48_conformer_5_docked
     RDKit          3D

 52 55  0  0  0  0  0  0  0  0999 V2000
   -2.5360   43.1290   52.5910 C   0  0  0  0  0  0  0  0  0  0  0  0
   -2.9410   44.4470   53.2600 C   0  0  0  0  0  0  0  0  0  0  0  0
   -2.7660   45.6460   52.3240 C   0  0  0  0  0  0  0  0  0  0  0  0
   -2.2250   44.6590   54.5740 C   0  0  0  0  0  0  0  0  0  0  0  0
   -2.8850   44.8280   55.7430 N   0  0  0  0  0  0  0  0  0  0  0  0
   -1.9780   45.0050   56.6980 N   0  0  0  0  0  0  0  0  0  0  0  0
   -0.7800   44.9430   56.0930 C   0  0  0  0  0  0  0  0  0  0  0  0
    0.4620   45.0890   56.7020 C   0  0  0  0  0  0  0  0  0  0  0  0
    1.5990   44.9980   55.8860 C   0  0  0  0  0  0  0  0  0  0  0  0
    1.4750   44.7520   54.5010 C   0  0  0  0  0  0  0  0  0  0  0  0
    2.6510   44.6750   53.6800 N   0  0  0  0  0  0  0  0  0  0  0  0
    2.9480   45.6260   52.6470 C   0  0  0  0  0  0  0  0  0  0  0  0
    1.9980   46.1600   52.0140 O   0  0  0  0  0  0  0  0  0  0  0  0
    4.3150   45.9330   52.2900 N   0  0  0  0  0  0  0  0  0  0  0  0
    4.8020   45.6190   50.9360 C   0  0  0  0  0  0  0  0  0  0  0  0
    6.1660   44.9070   50.9560 C   0  0  0  0  0  0  0  0  0  0  0  0
    7.3430   45.8060   50.5110 C   0  0  0  0  0  0  0  0  0  0  0  0
    8.1720   46.3220   51.6710 C   0  0  0  0  0  0  0  0  0  0  0  0
    9.5530   46.0520   51.6720 C   0  0  0  0  0  0  0  0  0  0  0  0
   10.3690   46.5090   52.7070 C   0  0  0  0  0  0  0  0  0  0  0  0
    9.8240   47.2580   53.7470 C   0  0  0  0  0  0  0  0  0  0  0  0
    8.4630   47.5550   53.7560 C   0  0  0  0  0  0  0  0  0  0  0  0
    7.6170   47.0890   52.7310 C   0  0  0  0  0  0  0  0  0  0  0  0
    6.1710   47.5300   52.7440 C   0  0  0  0  0  0  0  0  0  0  0  0
    5.2660   46.4260   53.3020 C   0  0  0  0  0  0  0  0  0  0  0  0
    0.1830   44.6340   53.9440 C   0  0  0  0  0  0  0  0  0  0  0  0
   -0.8900   44.7280   54.7730 N   0  0  0  0  0  0  0  0  0  0  0  0
   -2.3061   42.3809   53.3640 H   0  0  0  0  0  0  0  0  0  0  0  0
   -3.3641   42.7662   51.9644 H   0  0  0  0  0  0  0  0  0  0  0  0
   -1.6471   43.2939   51.9644 H   0  0  0  0  0  0  0  0  0  0  0  0
   -4.0148   44.3672   53.4848 H   0  0  0  0  0  0  0  0  0  0  0  0
   -2.6325   46.5605   52.9206 H   0  0  0  0  0  0  0  0  0  0  0  0
   -1.8811   45.4897   51.6895 H   0  0  0  0  0  0  0  0  0  0  0  0
   -3.6586   45.7492   51.6895 H   0  0  0  0  0  0  0  0  0  0  0  0
    0.5492   45.2692   57.7836 H   0  0  0  0  0  0  0  0  0  0  0  0
    2.5982   45.1196   56.3297 H   0  0  0  0  0  0  0  0  0  0  0  0
    3.2640   43.8330   53.7670 H   0  0  0  0  0  0  0  0  0  0  0  0
    4.0694   44.9659   50.4393 H   0  0  0  0  0  0  0  0  0  0  0  0
    4.9261   46.5685   50.3946 H   0  0  0  0  0  0  0  0  0  0  0  0
    6.3620   44.5606   51.9815 H   0  0  0  0  0  0  0  0  0  0  0  0
    6.1059   44.0768   50.2369 H   0  0  0  0  0  0  0  0  0  0  0  0
    7.9969   45.2224   49.8463 H   0  0  0  0  0  0  0  0  0  0  0  0
    6.9120   46.6810   50.0024 H   0  0  0  0  0  0  0  0  0  0  0  0
    9.9943   45.4737   50.8469 H   0  0  0  0  0  0  0  0  0  0  0  0
   11.4443   46.2775   52.7017 H   0  0  0  0  0  0  0  0  0  0  0  0
   10.4694   47.6157   54.5628 H   0  0  0  0  0  0  0  0  0  0  0  0
    8.0442   48.1606   54.5732 H   0  0  0  0  0  0  0  0  0  0  0  0
    6.0740   48.4271   53.3731 H   0  0  0  0  0  0  0  0  0  0  0  0
    5.8616   47.7487   51.7113 H   0  0  0  0  0  0  0  0  0  0  0  0
    5.8936   45.5877   53.6388 H   0  0  0  0  0  0  0  0  0  0  0  0
    4.6877   46.8481   54.1371 H   0  0  0  0  0  0  0  0  0  0  0  0
    0.0480   44.4699   52.8647 H   0  0  0  0  0  0  0  0  0  0  0  0
  1  2  1  0
  2  3  1  0
  2  4  1  0
  4  5  2  0
  5  6  1  0
  6  7  2  0
  7  8  1  0
  8  9  2  0
  9 10  1  0
 10 11  1  0
 11 12  1  0
 12 13  2  0
 12 14  1  0
 14 15  1  0
 15 16  1  0
 16 17  1  0
 17 18  1  0
 18 19  2  0
 19 20  1  0
 20 21  2  0
 21 22  1  0
 22 23  2  0
 23 24  1  0
 24 25  1  0
 10 26  2  0
 26 27  1  0
 27  4  1  0
 27  7  1  0
 25 14  1  0
 23 18  1  0
  1 28  1  0
  1 29  1  0
  1 30  1  0
  2 31  1  0
  3 32  1  0
  3 33  1  0
  3 34  1  0
  8 35  1  0
  9 36  1  0
 11 37  1  0
 15 38  1  0
 15 39  1  0
 16 40  1  0
 16 41  1  0
 17 42  1  0
 17 43  1  0
 19 44  1  0
 20 45  1  0
 21 46  1  0
 22 47  1  0
 24 48  1  0
 24 49  1  0
 25 50  1  0
 25 51  1  0
 26 52  1  0
M  END
>  <meeko>  (5) 
{"is_sidechain": [false], "free_energy": -6.798, "intermolecular_energy": -10.739, "internal_energy": 0.54}

$$$$
