ligand_99_conformer_2_docked
     RDKit          3D

 47 48  0  0  0  0  0  0  0  0999 V2000
   10.2870   46.1780   51.2690 C   0  0  0  0  0  0  0  0  0  0  0  0
    9.3910   46.5580   52.4200 C   0  0  0  0  0  0  0  0  0  0  0  0
    9.9600   47.1710   53.5480 C   0  0  0  0  0  0  0  0  0  0  0  0
    9.1690   47.5250   54.6400 C   0  0  0  0  0  0  0  0  0  0  0  0
    7.7990   47.2760   54.6190 C   0  0  0  0  0  0  0  0  0  0  0  0
    7.2060   46.6570   53.5120 C   0  0  0  0  0  0  0  0  0  0  0  0
    5.7890   46.4100   53.5310 N   0  0  0  0  0  0  0  0  0  0  0  0
    4.8850   47.5460   53.3390 C   0  0  0  0  0  0  0  0  0  0  0  0
    5.2660   45.1520   54.0070 C   0  0  0  0  0  0  0  0  0  0  0  0
    5.7520   44.6280   55.0460 O   0  0  0  0  0  0  0  0  0  0  0  0
    4.1530   44.4650   53.3190 C   0  0  0  0  0  0  0  0  0  0  0  0
    4.2680   43.6310   52.2260 C   0  0  0  0  0  0  0  0  0  0  0  0
    2.9720   43.2370   51.9550 C   0  0  0  0  0  0  0  0  0  0  0  0
    2.6080   42.2920   50.8490 C   0  0  0  0  0  0  0  0  0  0  0  0
    2.1340   43.7960   52.8730 N   0  0  0  0  0  0  0  0  0  0  0  0
    0.6530   43.7390   52.9670 C   0  0  0  0  0  0  0  0  0  0  0  0
    0.1670   44.6340   54.1330 C   0  0  0  0  0  0  0  0  0  0  0  0
    0.1610   42.3010   53.2450 C   0  0  0  0  0  0  0  0  0  0  0  0
    0.0350   44.2740   51.6630 C   0  0  0  0  0  0  0  0  0  0  0  0
    2.8630   44.5490   53.6860 N   0  0  0  0  0  0  0  0  0  0  0  0
    8.0020   46.2630   52.4090 C   0  0  0  0  0  0  0  0  0  0  0  0
    7.3770   45.5560   51.2300 C   0  0  0  0  0  0  0  0  0  0  0  0
   11.2340   45.7764   51.6586 H   0  0  0  0  0  0  0  0  0  0  0  0
    9.7898   45.4133   50.6542 H   0  0  0  0  0  0  0  0  0  0  0  0
   10.4911   47.0670   50.6542 H   0  0  0  0  0  0  0  0  0  0  0  0
   11.0409   47.3739   53.5702 H   0  0  0  0  0  0  0  0  0  0  0  0
    9.6275   48.0015   55.5191 H   0  0  0  0  0  0  0  0  0  0  0  0
    7.1780   47.5679   55.4787 H   0  0  0  0  0  0  0  0  0  0  0  0
    4.5740   47.9368   54.3191 H   0  0  0  0  0  0  0  0  0  0  0  0
    5.4038   48.3365   52.7769 H   0  0  0  0  0  0  0  0  0  0  0  0
    3.9982   47.2180   52.7769 H   0  0  0  0  0  0  0  0  0  0  0  0
    5.1853   43.3443   51.6908 H   0  0  0  0  0  0  0  0  0  0  0  0
    2.2441   41.3472   51.2789 H   0  0  0  0  0  0  0  0  0  0  0  0
    1.8183   42.7407   50.2284 H   0  0  0  0  0  0  0  0  0  0  0  0
    3.4946   42.0950   50.2284 H   0  0  0  0  0  0  0  0  0  0  0  0
    0.4246   44.1596   55.0914 H   0  0  0  0  0  0  0  0  0  0  0  0
    0.6548   45.6178   54.0680 H   0  0  0  0  0  0  0  0  0  0  0  0
   -0.9238   44.7606   54.0680 H   0  0  0  0  0  0  0  0  0  0  0  0
    0.1046   42.1363   54.3311 H   0  0  0  0  0  0  0  0  0  0  0  0
   -0.8357   42.1622   52.8009 H   0  0  0  0  0  0  0  0  0  0  0  0
    0.8638   41.5807   52.8009 H   0  0  0  0  0  0  0  0  0  0  0  0
   -0.7766   44.9766   51.9031 H   0  0  0  0  0  0  0  0  0  0  0  0
    0.8078   44.7929   51.0769 H   0  0  0  0  0  0  0  0  0  0  0  0
   -0.3679   43.4348   51.0769 H   0  0  0  0  0  0  0  0  0  0  0  0
    6.6890   44.7777   51.5918 H   0  0  0  0  0  0  0  0  0  0  0  0
    6.8205   46.2825   50.6197 H   0  0  0  0  0  0  0  0  0  0  0  0
    8.1663   45.0928   50.6197 H   0  0  0  0  0  0  0  0  0  0  0  0
  1  2  1  0
  2  3  2  0
  3  4  1  0
  4  5  2  0
  5  6  1  0
  6  7  1  0
  7  8  1  0
  7  9  1  0
  9 10  2  0
  9 11  1  0
 11 12  1  0
 12 13  2  0
 13 14  1  0
 13 15  1  0
 15 16  1  0
 16 17  1  0
 16 18  1  0
 16 19  1  0
 15 20  1  0
  6 21  2  0
 21 22  1  0
 21  2  1  0
 20 11  2  0
  1 23  1  0
  1 24  1  0
  1 25  1  0
  3 26  1  0
  4 27  1  0
  5 28  1  0
  8 29  1  0
  8 30  1  0
  8 31  1  0
 12 32  1  0
 14 33  1  0
 14 34  1  0
 14 35  1  0
 17 36  1  0
 17 37  1  0
 17 38  1  0
 18 39  1  0
 18 40  1  0
 18 41  1  0
 19 42  1  0
 19 43  1  0
 19 44  1  0
 22 45  1  0
 22 46  1  0
 22 47  1  0
M  END
>  <meeko>  (1) 
{"is_sidechain": [false], "free_energy": -8.377, "intermolecular_energy": -10.336, "internal_energy": -0.532}

$$$$
ligand_99_conformer_2_docked
     RDKit          3D

 47 48  0  0  0  0  0  0  0  0999 V2000
   10.1530   46.0800   51.2440 C   0  0  0  0  0  0  0  0  0  0  0  0
    9.2930   46.5160   52.4020 C   0  0  0  0  0  0  0  0  0  0  0  0
    9.8990   47.1630   53.4920 C   0  0  0  0  0  0  0  0  0  0  0  0
    9.1410   47.5700   54.5880 C   0  0  0  0  0  0  0  0  0  0  0  0
    7.7680   47.3400   54.6120 C   0  0  0  0  0  0  0  0  0  0  0  0
    7.1380   46.6870   53.5460 C   0  0  0  0  0  0  0  0  0  0  0  0
    5.7190   46.4610   53.6100 N   0  0  0  0  0  0  0  0  0  0  0  0
    4.8250   47.5530   53.2180 C   0  0  0  0  0  0  0  0  0  0  0  0
    5.1860   45.3140   54.3050 C   0  0  0  0  0  0  0  0  0  0  0  0
    5.9590   44.5750   54.9720 O   0  0  0  0  0  0  0  0  0  0  0  0
    3.7440   44.9910   54.2750 C   0  0  0  0  0  0  0  0  0  0  0  0
    2.8240   45.3020   55.2540 C   0  0  0  0  0  0  0  0  0  0  0  0
    1.6280   44.8050   54.7750 C   0  0  0  0  0  0  0  0  0  0  0  0
    0.3240   44.9370   55.5050 C   0  0  0  0  0  0  0  0  0  0  0  0
    1.8350   44.2510   53.5470 N   0  0  0  0  0  0  0  0  0  0  0  0
    0.8900   43.5260   52.6600 C   0  0  0  0  0  0  0  0  0  0  0  0
    1.6380   43.0100   51.4070 C   0  0  0  0  0  0  0  0  0  0  0  0
   -0.2500   44.4490   52.1770 C   0  0  0  0  0  0  0  0  0  0  0  0
    0.3140   42.3100   53.4090 C   0  0  0  0  0  0  0  0  0  0  0  0
    3.1260   44.3590   53.2630 N   0  0  0  0  0  0  0  0  0  0  0  0
    7.9000   46.2410   52.4380 C   0  0  0  0  0  0  0  0  0  0  0  0
    7.2350   45.4980   51.3040 C   0  0  0  0  0  0  0  0  0  0  0  0
   11.0731   45.6135   51.6258 H   0  0  0  0  0  0  0  0  0  0  0  0
    9.6007   45.3530   50.6304 H   0  0  0  0  0  0  0  0  0  0  0  0
   10.4130   46.9552   50.6304 H   0  0  0  0  0  0  0  0  0  0  0  0
   10.9829   47.3501   53.4800 H   0  0  0  0  0  0  0  0  0  0  0  0
    9.6282   48.0739   55.4358 H   0  0  0  0  0  0  0  0  0  0  0  0
    7.1737   47.6740   55.4753 H   0  0  0  0  0  0  0  0  0  0  0  0
    4.4254   48.0411   54.1191 H   0  0  0  0  0  0  0  0  0  0  0  0
    5.3841   48.2879   52.6202 H   0  0  0  0  0  0  0  0  0  0  0  0
    3.9942   47.1500   52.6202 H   0  0  0  0  0  0  0  0  0  0  0  0
    3.0027   45.8279   56.2034 H   0  0  0  0  0  0  0  0  0  0  0  0
    0.5074   44.9184   56.5895 H   0  0  0  0  0  0  0  0  0  0  0  0
   -0.1553   45.8883   55.2304 H   0  0  0  0  0  0  0  0  0  0  0  0
   -0.3362   44.1011   55.2304 H   0  0  0  0  0  0  0  0  0  0  0  0
    2.5063   42.4110   51.7190 H   0  0  0  0  0  0  0  0  0  0  0  0
    0.9597   42.3868   50.8057 H   0  0  0  0  0  0  0  0  0  0  0  0
    1.9797   43.8654   50.8057 H   0  0  0  0  0  0  0  0  0  0  0  0
   -0.7728   44.8723   53.0474 H   0  0  0  0  0  0  0  0  0  0  0  0
    0.1705   45.2641   51.5698 H   0  0  0  0  0  0  0  0  0  0  0  0
   -0.9598   43.8681   51.5698 H   0  0  0  0  0  0  0  0  0  0  0  0
    0.3928   42.4763   54.4935 H   0  0  0  0  0  0  0  0  0  0  0  0
   -0.7428   42.1770   53.1343 H   0  0  0  0  0  0  0  0  0  0  0  0
    0.8806   41.4080   53.1343 H   0  0  0  0  0  0  0  0  0  0  0  0
    6.5541   44.7373   51.7135 H   0  0  0  0  0  0  0  0  0  0  0  0
    6.6640   46.2067   50.6862 H   0  0  0  0  0  0  0  0  0  0  0  0
    8.0025   45.0088   50.6862 H   0  0  0  0  0  0  0  0  0  0  0  0
  1  2  1  0
  2  3  2  0
  3  4  1  0
  4  5  2  0
  5  6  1  0
  6  7  1  0
  7  8  1  0
  7  9  1  0
  9 10  2  0
  9 11  1  0
 11 12  1  0
 12 13  2  0
 13 14  1  0
 13 15  1  0
 15 16  1  0
 16 17  1  0
 16 18  1  0
 16 19  1  0
 15 20  1  0
  6 21  2  0
 21 22  1  0
 21  2  1  0
 20 11  2  0
  1 23  1  0
  1 24  1  0
  1 25  1  0
  3 26  1  0
  4 27  1  0
  5 28  1  0
  8 29  1  0
  8 30  1  0
  8 31  1  0
 12 32  1  0
 14 33  1  0
 14 34  1  0
 14 35  1  0
 17 36  1  0
 17 37  1  0
 17 38  1  0
 18 39  1  0
 18 40  1  0
 18 41  1  0
 19 42  1  0
 19 43  1  0
 19 44  1  0
 22 45  1  0
 22 46  1  0
 22 47  1  0
M  END
>  <meeko>  (2) 
{"is_sidechain": [false], "free_energy": -8.099, "intermolecular_energy": -10.102, "internal_energy": -0.422}

$$$$
ligand_99_conformer_2_docked
     RDKit          3D

 47 48  0  0  0  0  0  0  0  0999 V2000
    9.5800   47.0060   51.7130 C   0  0  0  0  0  0  0  0  0  0  0  0
    8.2450   46.3150   51.8180 C   0  0  0  0  0  0  0  0  0  0  0  0
    7.7130   45.6910   50.6780 C   0  0  0  0  0  0  0  0  0  0  0  0
    6.4750   45.0530   50.7280 C   0  0  0  0  0  0  0  0  0  0  0  0
    5.7520   45.0260   51.9180 C   0  0  0  0  0  0  0  0  0  0  0  0
    6.2520   45.6480   53.0690 C   0  0  0  0  0  0  0  0  0  0  0  0
    5.4730   45.6050   54.2760 N   0  0  0  0  0  0  0  0  0  0  0  0
    5.7380   44.5300   55.2340 C   0  0  0  0  0  0  0  0  0  0  0  0
    4.2820   46.4090   54.4150 C   0  0  0  0  0  0  0  0  0  0  0  0
    4.3870   47.6550   54.5810 O   0  0  0  0  0  0  0  0  0  0  0  0
    2.9320   45.8130   54.3450 C   0  0  0  0  0  0  0  0  0  0  0  0
    2.0460   45.6880   55.3940 C   0  0  0  0  0  0  0  0  0  0  0  0
    0.9350   45.0830   54.8390 C   0  0  0  0  0  0  0  0  0  0  0  0
   -0.3100   44.7670   55.6130 C   0  0  0  0  0  0  0  0  0  0  0  0
    1.1520   44.8890   53.5080 N   0  0  0  0  0  0  0  0  0  0  0  0
    0.3000   44.2150   52.4950 C   0  0  0  0  0  0  0  0  0  0  0  0
   -0.9910   45.0400   52.2640 C   0  0  0  0  0  0  0  0  0  0  0  0
   -0.1240   42.8050   52.9620 C   0  0  0  0  0  0  0  0  0  0  0  0
    1.0600   44.1310   51.1590 C   0  0  0  0  0  0  0  0  0  0  0  0
    2.3730   45.3240   53.2250 N   0  0  0  0  0  0  0  0  0  0  0  0
    7.4940   46.3270   53.0230 C   0  0  0  0  0  0  0  0  0  0  0  0
    8.0200   47.0390   54.2480 C   0  0  0  0  0  0  0  0  0  0  0  0
    9.9690   47.2074   52.7220 H   0  0  0  0  0  0  0  0  0  0  0  0
   10.2856   46.3599   51.1702 H   0  0  0  0  0  0  0  0  0  0  0  0
    9.4599   47.9552   51.1702 H   0  0  0  0  0  0  0  0  0  0  0  0
    8.2796   45.7060   49.7353 H   0  0  0  0  0  0  0  0  0  0  0  0
    6.0686   44.5704   49.8269 H   0  0  0  0  0  0  0  0  0  0  0  0
    4.7802   44.5119   51.9542 H   0  0  0  0  0  0  0  0  0  0  0  0
    5.6419   44.9197   56.2582 H   0  0  0  0  0  0  0  0  0  0  0  0
    5.0135   43.7164   55.0818 H   0  0  0  0  0  0  0  0  0  0  0  0
    6.7576   44.1463   55.0818 H   0  0  0  0  0  0  0  0  0  0  0  0
    2.1913   46.0001   56.4387 H   0  0  0  0  0  0  0  0  0  0  0  0
   -0.0956   44.8214   56.6905 H   0  0  0  0  0  0  0  0  0  0  0  0
   -1.0948   45.4944   55.3581 H   0  0  0  0  0  0  0  0  0  0  0  0
   -0.6529   43.7534   55.3581 H   0  0  0  0  0  0  0  0  0  0  0  0
   -1.4268   45.3185   53.2348 H   0  0  0  0  0  0  0  0  0  0  0  0
   -0.7477   45.9504   51.6966 H   0  0  0  0  0  0  0  0  0  0  0  0
   -1.7150   44.4368   51.6966 H   0  0  0  0  0  0  0  0  0  0  0  0
   -0.1344   42.7706   54.0614 H   0  0  0  0  0  0  0  0  0  0  0  0
   -1.1299   42.5788   52.5786 H   0  0  0  0  0  0  0  0  0  0  0  0
    0.5903   42.0615   52.5786 H   0  0  0  0  0  0  0  0  0  0  0  0
    2.1357   44.0121   51.3559 H   0  0  0  0  0  0  0  0  0  0  0  0
    0.6950   43.2677   50.5832 H   0  0  0  0  0  0  0  0  0  0  0  0
    0.8924   45.0531   50.5832 H   0  0  0  0  0  0  0  0  0  0  0  0
    7.6481   46.5356   55.1526 H   0  0  0  0  0  0  0  0  0  0  0  0
    9.1197   47.0161   54.2415 H   0  0  0  0  0  0  0  0  0  0  0  0
    7.6750   48.0835   54.2415 H   0  0  0  0  0  0  0  0  0  0  0  0
  1  2  1  0
  2  3  2  0
  3  4  1  0
  4  5  2  0
  5  6  1  0
  6  7  1  0
  7  8  1  0
  7  9  1  0
  9 10  2  0
  9 11  1  0
 11 12  1  0
 12 13  2  0
 13 14  1  0
 13 15  1  0
 15 16  1  0
 16 17  1  0
 16 18  1  0
 16 19  1  0
 15 20  1  0
  6 21  2  0
 21 22  1  0
 21  2  1  0
 20 11  2  0
  1 23  1  0
  1 24  1  0
  1 25  1  0
  3 26  1  0
  4 27  1  0
  5 28  1  0
  8 29  1  0
  8 30  1  0
  8 31  1  0
 12 32  1  0
 14 33  1  0
 14 34  1  0
 14 35  1  0
 17 36  1  0
 17 37  1  0
 17 38  1  0
 18 39  1  0
 18 40  1  0
 18 41  1  0
 19 42  1  0
 19 43  1  0
 19 44  1  0
 22 45  1  0
 22 46  1  0
 22 47  1  0
M  END
>  <meeko>  (3) 
{"is_sidechain": [false], "free_energy": -7.851, "intermolecular_energy": -9.62, "internal_energy": -0.598}

$$$$
ligand_99_conformer_2_docked
     RDKit          3D

 47 48  0  0  0  0  0  0  0  0999 V2000
    0.0280   42.2330   53.4370 C   0  0  0  0  0  0  0  0  0  0  0  0
    1.2690   42.8950   52.8960 C   0  0  0  0  0  0  0  0  0  0  0  0
    1.8660   42.3730   51.7360 C   0  0  0  0  0  0  0  0  0  0  0  0
    3.0220   42.9460   51.2110 C   0  0  0  0  0  0  0  0  0  0  0  0
    3.5980   44.0510   51.8340 C   0  0  0  0  0  0  0  0  0  0  0  0
    3.0320   44.5870   52.9970 C   0  0  0  0  0  0  0  0  0  0  0  0
    3.6590   45.7230   53.6150 N   0  0  0  0  0  0  0  0  0  0  0  0
    3.2920   47.0600   53.1430 C   0  0  0  0  0  0  0  0  0  0  0  0
    4.8150   45.5570   54.4630 C   0  0  0  0  0  0  0  0  0  0  0  0
    4.7030   44.9370   55.5560 O   0  0  0  0  0  0  0  0  0  0  0  0
    6.1430   46.0760   54.0750 C   0  0  0  0  0  0  0  0  0  0  0  0
    7.0060   46.7820   54.8860 C   0  0  0  0  0  0  0  0  0  0  0  0
    8.1030   47.0370   54.0850 C   0  0  0  0  0  0  0  0  0  0  0  0
    9.3220   47.7700   54.5600 C   0  0  0  0  0  0  0  0  0  0  0  0
    7.9010   46.4750   52.8610 N   0  0  0  0  0  0  0  0  0  0  0  0
    8.7440   46.5320   51.6390 C   0  0  0  0  0  0  0  0  0  0  0  0
    8.1280   45.6360   50.5360 C   0  0  0  0  0  0  0  0  0  0  0  0
   10.1730   46.0160   51.9160 C   0  0  0  0  0  0  0  0  0  0  0  0
    8.7880   47.9770   51.1130 C   0  0  0  0  0  0  0  0  0  0  0  0
    6.7020   45.9070   52.8640 N   0  0  0  0  0  0  0  0  0  0  0  0
    1.8740   43.9950   53.5590 C   0  0  0  0  0  0  0  0  0  0  0  0
    1.2830   44.5400   54.8380 C   0  0  0  0  0  0  0  0  0  0  0  0
    0.0545   42.2472   54.5366 H   0  0  0  0  0  0  0  0  0  0  0  0
   -0.8609   42.7768   53.0847 H   0  0  0  0  0  0  0  0  0  0  0  0
   -0.0155   41.1919   53.0847 H   0  0  0  0  0  0  0  0  0  0  0  0
    1.4155   41.5023   51.2370 H   0  0  0  0  0  0  0  0  0  0  0  0
    3.4805   42.5257   50.3037 H   0  0  0  0  0  0  0  0  0  0  0  0
    4.5047   44.5060   51.4088 H   0  0  0  0  0  0  0  0  0  0  0  0
    3.1117   47.7170   54.0066 H   0  0  0  0  0  0  0  0  0  0  0  0
    4.1105   47.4713   52.5340 H   0  0  0  0  0  0  0  0  0  0  0  0
    2.3782   46.9958   52.5340 H   0  0  0  0  0  0  0  0  0  0  0  0
    6.8552   47.0763   55.9351 H   0  0  0  0  0  0  0  0  0  0  0  0
    9.3385   47.7799   55.6598 H   0  0  0  0  0  0  0  0  0  0  0  0
   10.2236   47.2642   54.1843 H   0  0  0  0  0  0  0  0  0  0  0  0
    9.2980   48.8036   54.1843 H   0  0  0  0  0  0  0  0  0  0  0  0
    7.5638   44.8153   51.0029 H   0  0  0  0  0  0  0  0  0  0  0  0
    7.4513   46.2370   49.9108 H   0  0  0  0  0  0  0  0  0  0  0  0
    8.9315   45.2194   49.9108 H   0  0  0  0  0  0  0  0  0  0  0  0
   10.3373   45.9567   53.0020 H   0  0  0  0  0  0  0  0  0  0  0  0
   10.2947   45.0171   51.4716 H   0  0  0  0  0  0  0  0  0  0  0  0
   10.9048   46.7067   51.4716 H   0  0  0  0  0  0  0  0  0  0  0  0
    8.8093   48.6758   51.9622 H   0  0  0  0  0  0  0  0  0  0  0  0
    9.6908   48.1169   50.5003 H   0  0  0  0  0  0  0  0  0  0  0  0
    7.8954   48.1715   50.5003 H   0  0  0  0  0  0  0  0  0  0  0  0
    1.7850   44.0770   55.7003 H   0  0  0  0  0  0  0  0  0  0  0  0
    1.4257   45.6302   54.8725 H   0  0  0  0  0  0  0  0  0  0  0  0
    0.2079   44.3096   54.8725 H   0  0  0  0  0  0  0  0  0  0  0  0
  1  2  1  0
  2  3  2  0
  3  4  1  0
  4  5  2  0
  5  6  1  0
  6  7  1  0
  7  8  1  0
  7  9  1  0
  9 10  2  0
  9 11  1  0
 11 12  1  0
 12 13  2  0
 13 14  1  0
 13 15  1  0
 15 16  1  0
 16 17  1  0
 16 18  1  0
 16 19  1  0
 15 20  1  0
  6 21  2  0
 21 22  1  0
 21  2  1  0
 20 11  2  0
  1 23  1  0
  1 24  1  0
  1 25  1  0
  3 26  1  0
  4 27  1  0
  5 28  1  0
  8 29  1  0
  8 30  1  0
  8 31  1  0
 12 32  1  0
 14 33  1  0
 14 34  1  0
 14 35  1  0
 17 36  1  0
 17 37  1  0
 17 38  1  0
 18 39  1  0
 18 40  1  0
 18 41  1  0
 19 42  1  0
 19 43  1  0
 19 44  1  0
 22 45  1  0
 22 46  1  0
 22 47  1  0
M  END
>  <meeko>  (4) 
{"is_sidechain": [false], "free_energy": -7.814, "intermolecular_energy": -9.549, "internal_energy": -0.624}

$$$$
ligand_99_conformer_2_docked
     RDKit          3D

 47 48  0  0  0  0  0  0  0  0999 V2000
   -0.1550   42.1990   52.8590 C   0  0  0  0  0  0  0  0  0  0  0  0
    0.3830   43.3300   53.6980 C   0  0  0  0  0  0  0  0  0  0  0  0
   -0.4700   43.9520   54.6250 C   0  0  0  0  0  0  0  0  0  0  0  0
   -0.0160   45.0100   55.4100 C   0  0  0  0  0  0  0  0  0  0  0  0
    1.2960   45.4600   55.2840 C   0  0  0  0  0  0  0  0  0  0  0  0
    2.1660   44.8660   54.3610 C   0  0  0  0  0  0  0  0  0  0  0  0
    3.5110   45.3640   54.2550 N   0  0  0  0  0  0  0  0  0  0  0  0
    4.4300   45.1200   55.3680 C   0  0  0  0  0  0  0  0  0  0  0  0
    3.8670   46.3140   53.2280 C   0  0  0  0  0  0  0  0  0  0  0  0
    3.0630   47.2380   52.9290 O   0  0  0  0  0  0  0  0  0  0  0  0
    5.1670   46.2470   52.5280 C   0  0  0  0  0  0  0  0  0  0  0  0
    5.4670   45.4390   51.4520 C   0  0  0  0  0  0  0  0  0  0  0  0
    6.7820   45.7350   51.1530 C   0  0  0  0  0  0  0  0  0  0  0  0
    7.5360   45.1040   50.0200 C   0  0  0  0  0  0  0  0  0  0  0  0
    7.2260   46.7030   52.0040 N   0  0  0  0  0  0  0  0  0  0  0  0
    8.5770   47.3040   52.1370 C   0  0  0  0  0  0  0  0  0  0  0  0
    8.7410   48.4570   51.1150 C   0  0  0  0  0  0  0  0  0  0  0  0
    9.6860   46.2670   51.8520 C   0  0  0  0  0  0  0  0  0  0  0  0
    8.7410   47.8900   53.5510 C   0  0  0  0  0  0  0  0  0  0  0  0
    6.2390   46.9940   52.8410 N   0  0  0  0  0  0  0  0  0  0  0  0
    1.7090   43.8110   53.5340 C   0  0  0  0  0  0  0  0  0  0  0  0
    2.6280   43.1940   52.5060 C   0  0  0  0  0  0  0  0  0  0  0  0
   -0.5338   41.4027   53.5166 H   0  0  0  0  0  0  0  0  0  0  0  0
   -0.9729   42.5703   52.2241 H   0  0  0  0  0  0  0  0  0  0  0  0
    0.6492   41.7987   52.2241 H   0  0  0  0  0  0  0  0  0  0  0  0
   -1.5067   43.6003   54.7322 H   0  0  0  0  0  0  0  0  0  0  0  0
   -0.6947   45.4904   56.1301 H   0  0  0  0  0  0  0  0  0  0  0  0
    1.6517   46.2884   55.9143 H   0  0  0  0  0  0  0  0  0  0  0  0
    3.8981   45.2612   56.3204 H   0  0  0  0  0  0  0  0  0  0  0  0
    4.8108   44.0896   55.3100 H   0  0  0  0  0  0  0  0  0  0  0  0
    5.2717   45.8258   55.3100 H   0  0  0  0  0  0  0  0  0  0  0  0
    4.8067   44.7198   50.9453 H   0  0  0  0  0  0  0  0  0  0  0  0
    8.3210   44.4471   50.4228 H   0  0  0  0  0  0  0  0  0  0  0  0
    6.8435   44.5123   49.4032 H   0  0  0  0  0  0  0  0  0  0  0  0
    7.9964   45.8899   49.4032 H   0  0  0  0  0  0  0  0  0  0  0  0
    8.8761   49.4071   51.6527 H   0  0  0  0  0  0  0  0  0  0  0  0
    9.6208   48.2648   50.4834 H   0  0  0  0  0  0  0  0  0  0  0  0
    7.8425   48.5177   50.4834 H   0  0  0  0  0  0  0  0  0  0  0  0
   10.0890   45.8902   52.8036 H   0  0  0  0  0  0  0  0  0  0  0  0
    9.2659   45.4302   51.2747 H   0  0  0  0  0  0  0  0  0  0  0  0
   10.4928   46.7422   51.2747 H   0  0  0  0  0  0  0  0  0  0  0  0
    8.5233   47.1122   54.2978 H   0  0  0  0  0  0  0  0  0  0  0  0
    9.7733   48.2462   53.6828 H   0  0  0  0  0  0  0  0  0  0  0  0
    8.0435   48.7303   53.6828 H   0  0  0  0  0  0  0  0  0  0  0  0
    3.4370   42.6509   53.0164 H   0  0  0  0  0  0  0  0  0  0  0  0
    2.0575   42.4953   51.8765 H   0  0  0  0  0  0  0  0  0  0  0  0
    3.0587   43.9866   51.8765 H   0  0  0  0  0  0  0  0  0  0  0  0
  1  2  1  0
  2  3  2  0
  3  4  1  0
  4  5  2  0
  5  6  1  0
  6  7  1  0
  7  8  1  0
  7  9  1  0
  9 10  2  0
  9 11  1  0
 11 12  1  0
 12 13  2  0
 13 14  1  0
 13 15  1  0
 15 16  1  0
 16 17  1  0
 16 18  1  0
 16 19  1  0
 15 20  1  0
  6 21  2  0
 21 22  1  0
 21  2  1  0
 20 11  2  0
  1 23  1  0
  1 24  1  0
  1 25  1  0
  3 26  1  0
  4 27  1  0
  5 28  1  0
  8 29  1  0
  8 30  1  0
  8 31  1  0
 12 32  1  0
 14 33  1  0
 14 34  1  0
 14 35  1  0
 17 36  1  0
 17 37  1  0
 17 38  1  0
 18 39  1  0
 18 40  1  0
 18 41  1  0
 19 42  1  0
 19 43  1  0
 19 44  1  0
 22 45  1  0
 22 46  1  0
 22 47  1  0
M  END
>  <meeko>  (5) 
{"is_sidechain": [false], "free_energy": -7.781, "intermolecular_energy": -9.793, "internal_energy": -0.34}

$$$$
