ligand_95_conformer_2_docked
     RDKit          3D

 30 32  0  0  0  0  0  0  0  0999 V2000
    5.4900   43.1810   50.8450 N   0  0  0  0  0  0  0  0  0  0  0  0
    4.5680   43.7710   51.2200 C   0  0  0  0  0  0  0  0  0  0  0  0
    3.4210   44.5050   51.6870 C   0  0  0  0  0  0  0  0  0  0  0  0
    2.1210   44.2450   51.2380 C   0  0  0  0  0  0  0  0  0  0  0  0
    1.1590   45.0590   51.8240 C   0  0  0  0  0  0  0  0  0  0  0  0
    1.9280   46.1000   52.9000 S   0  0  0  0  0  0  0  0  0  0  0  0
    3.4840   45.5270   52.6280 C   0  0  0  0  0  0  0  0  0  0  0  0
    4.9270   46.1170   53.4420 S   0  0  0  0  0  0  0  0  0  0  0  0
    4.5160   47.1110   54.4910 O   0  0  0  0  0  0  0  0  0  0  0  0
    5.6540   44.9770   54.1000 O   0  0  0  0  0  0  0  0  0  0  0  0
    5.9800   46.8850   52.2990 N   0  0  0  0  0  0  0  0  0  0  0  0
    7.4130   46.8110   52.3870 C   0  0  0  0  0  0  0  0  0  0  0  0
    8.1330   47.5170   53.3770 C   0  0  0  0  0  0  0  0  0  0  0  0
    9.5360   47.4260   53.4480 C   0  0  0  0  0  0  0  0  0  0  0  0
   10.2430   46.6350   52.5320 C   0  0  0  0  0  0  0  0  0  0  0  0
    9.5270   45.9470   51.5540 C   0  0  0  0  0  0  0  0  0  0  0  0
    8.1500   46.0350   51.4790 C   0  0  0  0  0  0  0  0  0  0  0  0
    7.6350   45.2260   50.4330 N   0  0  0  0  0  0  0  0  0  0  0  0
    8.7810   44.6210   49.8450 C   0  0  0  0  0  0  0  0  0  0  0  0
    8.7080   43.8190   48.8770 O   0  0  0  0  0  0  0  0  0  0  0  0
   10.0630   45.0330   50.4990 C   0  0  0  0  0  0  0  0  0  0  0  0
    1.8837   43.4711   50.4932 H   0  0  0  0  0  0  0  0  0  0  0  0
    0.0786   45.0282   51.6194 H   0  0  0  0  0  0  0  0  0  0  0  0
    5.5350   47.3040   51.4540 H   0  0  0  0  0  0  0  0  0  0  0  0
    7.5913   48.1445   54.1000 H   0  0  0  0  0  0  0  0  0  0  0  0
   10.0809   47.9791   54.2272 H   0  0  0  0  0  0  0  0  0  0  0  0
   11.3391   46.5589   52.5839 H   0  0  0  0  0  0  0  0  0  0  0  0
    6.6380   45.0560   50.1760 H   0  0  0  0  0  0  0  0  0  0  0  0
   10.5952   44.1740   50.9336 H   0  0  0  0  0  0  0  0  0  0  0  0
   10.8055   45.4848   49.8248 H   0  0  0  0  0  0  0  0  0  0  0  0
  1  2  3  0
  2  3  1  0
  3  4  1  0
  4  5  2  0
  5  6  1  0
  6  7  1  0
  7  8  1  0
  8  9  2  0
  8 10  2  0
  8 11  1  0
 11 12  1  0
 12 13  2  0
 13 14  1  0
 14 15  2  0
 15 16  1  0
 16 17  2  0
 17 18  1  0
 18 19  1  0
 19 20  2  0
 19 21  1  0
  7  3  2  0
 17 12  1  0
 21 16  1  0
  4 22  1  0
  5 23  1  0
 11 24  1  0
 13 25  1  0
 14 26  1  0
 15 27  1  0
 18 28  1  0
 21 29  1  0
 21 30  1  0
M  END
>  <meeko>  (1) 
{"is_sidechain": [false], "free_energy": -8.431, "intermolecular_energy": -9.91, "internal_energy": -0.789}

$$$$
ligand_95_conformer_2_docked
     RDKit          3D

 30 32  0  0  0  0  0  0  0  0999 V2000
    9.0370   48.3130   55.3140 N   0  0  0  0  0  0  0  0  0  0  0  0
    9.0640   47.7070   54.3280 C   0  0  0  0  0  0  0  0  0  0  0  0
    9.0990   46.9530   53.1020 C   0  0  0  0  0  0  0  0  0  0  0  0
   10.2890   46.6660   52.4230 C   0  0  0  0  0  0  0  0  0  0  0  0
   10.1000   45.9160   51.2680 C   0  0  0  0  0  0  0  0  0  0  0  0
    8.4540   45.6120   51.0950 S   0  0  0  0  0  0  0  0  0  0  0  0
    7.9710   46.4300   52.4800 C   0  0  0  0  0  0  0  0  0  0  0  0
    6.3090   46.5520   53.0450 S   0  0  0  0  0  0  0  0  0  0  0  0
    6.1530   45.7000   54.2720 O   0  0  0  0  0  0  0  0  0  0  0  0
    5.9830   47.9780   53.3900 O   0  0  0  0  0  0  0  0  0  0  0  0
    5.2220   45.9970   51.8130 N   0  0  0  0  0  0  0  0  0  0  0  0
    4.3380   44.8790   51.9990 C   0  0  0  0  0  0  0  0  0  0  0  0
    3.1520   44.9900   52.7580 C   0  0  0  0  0  0  0  0  0  0  0  0
    2.2990   43.8830   52.9240 C   0  0  0  0  0  0  0  0  0  0  0  0
    2.6150   42.6480   52.3400 C   0  0  0  0  0  0  0  0  0  0  0  0
    3.7910   42.5450   51.5980 C   0  0  0  0  0  0  0  0  0  0  0  0
    4.6330   43.6280   51.4340 C   0  0  0  0  0  0  0  0  0  0  0  0
    5.7440   43.3010   50.6160 N   0  0  0  0  0  0  0  0  0  0  0  0
    5.5530   41.9340   50.2730 C   0  0  0  0  0  0  0  0  0  0  0  0
    6.3520   41.2960   49.5380 O   0  0  0  0  0  0  0  0  0  0  0  0
    4.3120   41.3470   50.8710 C   0  0  0  0  0  0  0  0  0  0  0  0
   11.2776   47.0014   52.7697 H   0  0  0  0  0  0  0  0  0  0  0  0
   10.8920   45.5785   50.5833 H   0  0  0  0  0  0  0  0  0  0  0  0
    5.1330   46.5900   50.9600 H   0  0  0  0  0  0  0  0  0  0  0  0
    2.8923   45.9519   53.2243 H   0  0  0  0  0  0  0  0  0  0  0  0
    1.3778   43.9873   53.5161 H   0  0  0  0  0  0  0  0  0  0  0  0
    1.9504   41.7803   52.4644 H   0  0  0  0  0  0  0  0  0  0  0  0
    6.5090   43.9270   50.2820 H   0  0  0  0  0  0  0  0  0  0  0  0
    3.6101   40.9996   50.0986 H   0  0  0  0  0  0  0  0  0  0  0  0
    4.4722   40.4560   51.4958 H   0  0  0  0  0  0  0  0  0  0  0  0
  1  2  3  0
  2  3  1  0
  3  4  1  0
  4  5  2  0
  5  6  1  0
  6  7  1  0
  7  8  1  0
  8  9  2  0
  8 10  2  0
  8 11  1  0
 11 12  1  0
 12 13  2  0
 13 14  1  0
 14 15  2  0
 15 16  1  0
 16 17  2  0
 17 18  1  0
 18 19  1  0
 19 20  2  0
 19 21  1  0
  7  3  2  0
 17 12  1  0
 21 16  1  0
  4 22  1  0
  5 23  1  0
 11 24  1  0
 13 25  1  0
 14 26  1  0
 15 27  1  0
 18 28  1  0
 21 29  1  0
 21 30  1  0
M  END
>  <meeko>  (2) 
{"is_sidechain": [false], "free_energy": -8.421, "intermolecular_energy": -10.252, "internal_energy": -0.435}

$$$$
ligand_95_conformer_2_docked
     RDKit          3D

 30 32  0  0  0  0  0  0  0  0999 V2000
    4.5510   42.7120   51.1680 N   0  0  0  0  0  0  0  0  0  0  0  0
    3.7960   43.1410   51.9330 C   0  0  0  0  0  0  0  0  0  0  0  0
    2.8560   43.6750   52.8840 C   0  0  0  0  0  0  0  0  0  0  0  0
    1.5390   43.2110   52.9900 C   0  0  0  0  0  0  0  0  0  0  0  0
    0.8050   43.8540   53.9790 C   0  0  0  0  0  0  0  0  0  0  0  0
    1.7940   44.9960   54.7200 S   0  0  0  0  0  0  0  0  0  0  0  0
    3.1580   44.6850   53.7910 C   0  0  0  0  0  0  0  0  0  0  0  0
    4.7090   45.4930   53.9830 S   0  0  0  0  0  0  0  0  0  0  0  0
    4.5460   46.6240   54.9590 O   0  0  0  0  0  0  0  0  0  0  0  0
    5.7340   44.5300   54.5110 O   0  0  0  0  0  0  0  0  0  0  0  0
    5.2440   46.1200   52.4570 N   0  0  0  0  0  0  0  0  0  0  0  0
    6.6050   46.0170   52.0050 C   0  0  0  0  0  0  0  0  0  0  0  0
    6.9370   45.3710   50.7930 C   0  0  0  0  0  0  0  0  0  0  0  0
    8.2760   45.2850   50.3690 C   0  0  0  0  0  0  0  0  0  0  0  0
    9.3050   45.8380   51.1450 C   0  0  0  0  0  0  0  0  0  0  0  0
    8.9690   46.4670   52.3430 C   0  0  0  0  0  0  0  0  0  0  0  0
    7.6560   46.5520   52.7650 C   0  0  0  0  0  0  0  0  0  0  0  0
    7.5500   47.2640   53.9880 N   0  0  0  0  0  0  0  0  0  0  0  0
    8.8870   47.6230   54.3160 C   0  0  0  0  0  0  0  0  0  0  0  0
    9.1840   48.2810   55.3480 O   0  0  0  0  0  0  0  0  0  0  0  0
    9.8870   47.1430   53.3100 C   0  0  0  0  0  0  0  0  0  0  0  0
    1.1260   42.4153   52.3526 H   0  0  0  0  0  0  0  0  0  0  0  0
   -0.2454   43.6508   54.2345 H   0  0  0  0  0  0  0  0  0  0  0  0
    4.5080   46.4670   51.8040 H   0  0  0  0  0  0  0  0  0  0  0  0
    6.1408   44.9309   50.1747 H   0  0  0  0  0  0  0  0  0  0  0  0
    8.5174   44.7803   49.4219 H   0  0  0  0  0  0  0  0  0  0  0  0
   10.3529   45.7769   50.8161 H   0  0  0  0  0  0  0  0  0  0  0  0
    6.6870   47.5250   54.5120 H   0  0  0  0  0  0  0  0  0  0  0  0
   10.4308   47.9775   52.8431 H   0  0  0  0  0  0  0  0  0  0  0  0
   10.6869   46.5062   53.7158 H   0  0  0  0  0  0  0  0  0  0  0  0
  1  2  3  0
  2  3  1  0
  3  4  1  0
  4  5  2  0
  5  6  1  0
  6  7  1  0
  7  8  1  0
  8  9  2  0
  8 10  2  0
  8 11  1  0
 11 12  1  0
 12 13  2  0
 13 14  1  0
 14 15  2  0
 15 16  1  0
 16 17  2  0
 17 18  1  0
 18 19  1  0
 19 20  2  0
 19 21  1  0
  7  3  2  0
 17 12  1  0
 21 16  1  0
  4 22  1  0
  5 23  1  0
 11 24  1  0
 13 25  1  0
 14 26  1  0
 15 27  1  0
 18 28  1  0
 21 29  1  0
 21 30  1  0
M  END
>  <meeko>  (3) 
{"is_sidechain": [false], "free_energy": -8.395, "intermolecular_energy": -10.048, "internal_energy": -0.608}

$$$$
ligand_95_conformer_2_docked
     RDKit          3D

 30 32  0  0  0  0  0  0  0  0999 V2000
    8.9110   48.3210   55.3250 N   0  0  0  0  0  0  0  0  0  0  0  0
    9.0170   47.7070   54.3500 C   0  0  0  0  0  0  0  0  0  0  0  0
    9.1490   46.9420   53.1370 C   0  0  0  0  0  0  0  0  0  0  0  0
   10.3880   46.6680   52.5460 C   0  0  0  0  0  0  0  0  0  0  0  0
   10.2920   45.9050   51.3880 C   0  0  0  0  0  0  0  0  0  0  0  0
    8.6670   45.5720   51.1040 S   0  0  0  0  0  0  0  0  0  0  0  0
    8.0750   46.3950   52.4430 C   0  0  0  0  0  0  0  0  0  0  0  0
    6.3770   46.4960   52.8890 S   0  0  0  0  0  0  0  0  0  0  0  0
    6.1370   45.6130   54.0800 O   0  0  0  0  0  0  0  0  0  0  0  0
    6.0170   47.9120   53.2440 O   0  0  0  0  0  0  0  0  0  0  0  0
    5.3850   45.9670   51.5680 N   0  0  0  0  0  0  0  0  0  0  0  0
    4.8870   44.6230   51.4570 C   0  0  0  0  0  0  0  0  0  0  0  0
    5.5070   43.6710   50.6170 C   0  0  0  0  0  0  0  0  0  0  0  0
    5.0050   42.3580   50.5270 C   0  0  0  0  0  0  0  0  0  0  0  0
    3.8780   41.9760   51.2680 C   0  0  0  0  0  0  0  0  0  0  0  0
    3.2680   42.9240   52.0880 C   0  0  0  0  0  0  0  0  0  0  0  0
    3.7560   44.2130   52.1790 C   0  0  0  0  0  0  0  0  0  0  0  0
    3.0020   44.9890   53.0970 N   0  0  0  0  0  0  0  0  0  0  0  0
    1.9990   44.1040   53.5820 C   0  0  0  0  0  0  0  0  0  0  0  0
    1.1380   44.4490   54.4340 O   0  0  0  0  0  0  0  0  0  0  0  0
    2.0820   42.7350   52.9790 C   0  0  0  0  0  0  0  0  0  0  0  0
   11.3446   47.0220   52.9579 H   0  0  0  0  0  0  0  0  0  0  0  0
   11.1351   45.5749   50.7633 H   0  0  0  0  0  0  0  0  0  0  0  0
    5.0450   46.7010   50.9100 H   0  0  0  0  0  0  0  0  0  0  0  0
    6.3903   43.9580   50.0276 H   0  0  0  0  0  0  0  0  0  0  0  0
    5.5007   41.6274   49.8708 H   0  0  0  0  0  0  0  0  0  0  0  0
    3.4838   40.9511   51.2038 H   0  0  0  0  0  0  0  0  0  0  0  0
    3.1680   45.9720   53.4040 H   0  0  0  0  0  0  0  0  0  0  0  0
    2.2612   41.9621   53.7409 H   0  0  0  0  0  0  0  0  0  0  0  0
    1.1678   42.3924   52.4722 H   0  0  0  0  0  0  0  0  0  0  0  0
  1  2  3  0
  2  3  1  0
  3  4  1  0
  4  5  2  0
  5  6  1  0
  6  7  1  0
  7  8  1  0
  8  9  2  0
  8 10  2  0
  8 11  1  0
 11 12  1  0
 12 13  2  0
 13 14  1  0
 14 15  2  0
 15 16  1  0
 16 17  2  0
 17 18  1  0
 18 19  1  0
 19 20  2  0
 19 21  1  0
  7  3  2  0
 17 12  1  0
 21 16  1  0
  4 22  1  0
  5 23  1  0
 11 24  1  0
 13 25  1  0
 14 26  1  0
 15 27  1  0
 18 28  1  0
 21 29  1  0
 21 30  1  0
M  END
>  <meeko>  (4) 
{"is_sidechain": [false], "free_energy": -8.351, "intermolecular_energy": -10.108, "internal_energy": -0.497}

$$$$
ligand_95_conformer_2_docked
     RDKit          3D

 30 32  0  0  0  0  0  0  0  0999 V2000
    5.8180   45.2480   55.6540 N   0  0  0  0  0  0  0  0  0  0  0  0
    4.7210   45.2650   55.2850 C   0  0  0  0  0  0  0  0  0  0  0  0
    3.3560   45.2860   54.8260 C   0  0  0  0  0  0  0  0  0  0  0  0
    2.2650   45.3840   55.6980 C   0  0  0  0  0  0  0  0  0  0  0  0
    1.0370   45.4000   55.0480 C   0  0  0  0  0  0  0  0  0  0  0  0
    1.3110   45.2920   53.3910 S   0  0  0  0  0  0  0  0  0  0  0  0
    2.9860   45.2220   53.4870 C   0  0  0  0  0  0  0  0  0  0  0  0
    4.0670   45.1250   52.1030 S   0  0  0  0  0  0  0  0  0  0  0  0
    4.7450   43.7850   52.1140 O   0  0  0  0  0  0  0  0  0  0  0  0
    3.2890   45.2740   50.8260 O   0  0  0  0  0  0  0  0  0  0  0  0
    5.2630   46.3780   52.1960 N   0  0  0  0  0  0  0  0  0  0  0  0
    6.6410   46.1680   51.8450 C   0  0  0  0  0  0  0  0  0  0  0  0
    7.0100   45.4850   50.6650 C   0  0  0  0  0  0  0  0  0  0  0  0
    8.3660   45.2940   50.3390 C   0  0  0  0  0  0  0  0  0  0  0  0
    9.3740   45.7780   51.1850 C   0  0  0  0  0  0  0  0  0  0  0  0
    9.0020   46.4440   52.3510 C   0  0  0  0  0  0  0  0  0  0  0  0
    7.6720   46.6320   52.6760 C   0  0  0  0  0  0  0  0  0  0  0  0
    7.5330   47.3640   53.8830 N   0  0  0  0  0  0  0  0  0  0  0  0
    8.8660   47.6260   54.3060 C   0  0  0  0  0  0  0  0  0  0  0  0
    9.1360   48.2720   55.3520 O   0  0  0  0  0  0  0  0  0  0  0  0
    9.8970   47.0610   53.3780 C   0  0  0  0  0  0  0  0  0  0  0  0
    2.3698   45.4426   56.7914 H   0  0  0  0  0  0  0  0  0  0  0  0
    0.0528   45.4712   55.5340 H   0  0  0  0  0  0  0  0  0  0  0  0
    4.9210   47.3430   52.3930 H   0  0  0  0  0  0  0  0  0  0  0  0
    6.2293   45.0982   49.9935 H   0  0  0  0  0  0  0  0  0  0  0  0
    8.6365   44.7619   49.4150 H   0  0  0  0  0  0  0  0  0  0  0  0
   10.4353   45.6350   50.9337 H   0  0  0  0  0  0  0  0  0  0  0  0
    6.6560   47.6950   54.3420 H   0  0  0  0  0  0  0  0  0  0  0  0
   10.5341   47.8471   52.9466 H   0  0  0  0  0  0  0  0  0  0  0  0
   10.6156   46.3711   53.8445 H   0  0  0  0  0  0  0  0  0  0  0  0
  1  2  3  0
  2  3  1  0
  3  4  1  0
  4  5  2  0
  5  6  1  0
  6  7  1  0
  7  8  1  0
  8  9  2  0
  8 10  2  0
  8 11  1  0
 11 12  1  0
 12 13  2  0
 13 14  1  0
 14 15  2  0
 15 16  1  0
 16 17  2  0
 17 18  1  0
 18 19  1  0
 19 20  2  0
 19 21  1  0
  7  3  2  0
 17 12  1  0
 21 16  1  0
  4 22  1  0
  5 23  1  0
 11 24  1  0
 13 25  1  0
 14 26  1  0
 15 27  1  0
 18 28  1  0
 21 29  1  0
 21 30  1  0
M  END
>  <meeko>  (5) 
{"is_sidechain": [false], "free_energy": -8.349, "intermolecular_energy": -10.004, "internal_energy": -0.598}

$$$$
