ligand_7_conformer_1_docked
     RDKit          3D

 46 48  0  0  0  0  0  0  0  0999 V2000
    1.4830   43.1080   50.9010 O   0  0  0  0  0  0  0  0  0  0  0  0
    2.3070   43.3620   51.8210 C   0  0  0  0  0  0  0  0  0  0  0  0
    2.0180   42.9530   53.1660 N   0  0  0  0  0  0  0  0  0  0  0  0
    0.7440   42.3170   53.5100 C   0  0  0  0  0  0  0  0  0  0  0  0
   -0.2430   43.2750   54.2100 C   0  0  0  0  0  0  0  0  0  0  0  0
   -1.1410   44.0330   53.2180 C   0  0  0  0  0  0  0  0  0  0  0  0
   -2.1190   44.9720   53.9670 C   0  0  0  0  0  0  0  0  0  0  0  0
   -1.7880   45.1590   55.3350 O   0  0  0  0  0  0  0  0  0  0  0  0
   -0.4170   45.4820   55.4680 C   0  0  0  0  0  0  0  0  0  0  0  0
    0.4610   44.2520   55.1790 C   0  0  0  0  0  0  0  0  0  0  0  0
    3.5550   44.1010   51.5150 C   0  0  0  0  0  0  0  0  0  0  0  0
    4.6220   43.4180   50.9160 C   0  0  0  0  0  0  0  0  0  0  0  0
    5.7870   44.0590   50.6470 N   0  0  0  0  0  0  0  0  0  0  0  0
    5.9460   45.3760   50.9350 C   0  0  0  0  0  0  0  0  0  0  0  0
    7.1910   46.0400   50.6780 N   0  0  0  0  0  0  0  0  0  0  0  0
    8.1100   46.4600   51.7020 C   0  0  0  0  0  0  0  0  0  0  0  0
    7.6790   47.2100   52.8120 C   0  0  0  0  0  0  0  0  0  0  0  0
    8.5870   47.5830   53.8060 C   0  0  0  0  0  0  0  0  0  0  0  0
    9.9270   47.2020   53.7100 C   0  0  0  0  0  0  0  0  0  0  0  0
   10.3600   46.4370   52.6240 C   0  0  0  0  0  0  0  0  0  0  0  0
    9.4540   46.0600   51.6280 C   0  0  0  0  0  0  0  0  0  0  0  0
    4.9320   46.0620   51.5210 N   0  0  0  0  0  0  0  0  0  0  0  0
    3.7370   45.4760   51.8110 C   0  0  0  0  0  0  0  0  0  0  0  0
    2.6610   46.3290   52.4360 C   0  0  0  0  0  0  0  0  0  0  0  0
    2.9160   47.6700   52.1990 F   0  0  0  0  0  0  0  0  0  0  0  0
    2.6360   46.1240   53.8030 F   0  0  0  0  0  0  0  0  0  0  0  0
    1.4260   46.0230   51.8950 F   0  0  0  0  0  0  0  0  0  0  0  0
    2.7530   43.0920   53.8950 H   0  0  0  0  0  0  0  0  0  0  0  0
    0.2766   41.9475   52.5854 H   0  0  0  0  0  0  0  0  0  0  0  0
    0.9648   41.5020   54.2150 H   0  0  0  0  0  0  0  0  0  0  0  0
   -0.8974   42.6293   54.8140 H   0  0  0  0  0  0  0  0  0  0  0  0
   -0.5096   44.6323   52.5455 H   0  0  0  0  0  0  0  0  0  0  0  0
   -1.7266   43.3009   52.6426 H   0  0  0  0  0  0  0  0  0  0  0  0
   -2.1100   45.9529   53.4693 H   0  0  0  0  0  0  0  0  0  0  0  0
   -3.1110   44.4977   53.9358 H   0  0  0  0  0  0  0  0  0  0  0  0
   -0.1636   46.2819   54.7567 H   0  0  0  0  0  0  0  0  0  0  0  0
   -0.2303   45.8158   56.4994 H   0  0  0  0  0  0  0  0  0  0  0  0
    1.4071   44.5851   54.7274 H   0  0  0  0  0  0  0  0  0  0  0  0
    0.6464   43.7270   56.1277 H   0  0  0  0  0  0  0  0  0  0  0  0
    4.5140   42.3532   50.6618 H   0  0  0  0  0  0  0  0  0  0  0  0
    7.4030   46.3040   49.6890 H   0  0  0  0  0  0  0  0  0  0  0  0
    6.6224   47.5039   52.8974 H   0  0  0  0  0  0  0  0  0  0  0  0
    8.2457   48.1780   54.6660 H   0  0  0  0  0  0  0  0  0  0  0  0
   10.6418   47.5042   54.4896 H   0  0  0  0  0  0  0  0  0  0  0  0
   11.4142   46.1312   52.5525 H   0  0  0  0  0  0  0  0  0  0  0  0
    9.7961   45.4465   50.7815 H   0  0  0  0  0  0  0  0  0  0  0  0
  1  2  2  0
  2  3  1  0
  3  4  1  0
  4  5  1  0
  5  6  1  0
  6  7  1  0
  7  8  1  0
  8  9  1  0
  9 10  1  0
  2 11  1  0
 11 12  2  0
 12 13  1  0
 13 14  2  0
 14 15  1  0
 15 16  1  0
 16 17  2  0
 17 18  1  0
 18 19  2  0
 19 20  1  0
 20 21  2  0
 14 22  1  0
 22 23  2  0
 23 24  1  0
 24 25  1  0
 24 26  1  0
 24 27  1  0
 10  5  1  0
 23 11  1  0
 21 16  1  0
  3 28  1  0
  4 29  1  0
  4 30  1  0
  5 31  1  0
  6 32  1  0
  6 33  1  0
  7 34  1  0
  7 35  1  0
  9 36  1  0
  9 37  1  0
 10 38  1  0
 10 39  1  0
 12 40  1  0
 15 41  1  0
 17 42  1  0
 18 43  1  0
 19 44  1  0
 20 45  1  0
 21 46  1  0
M  END
>  <meeko>  (1) 
{"is_sidechain": [false], "free_energy": -8.511, "intermolecular_energy": -11.496, "internal_energy": -0.863}

$$$$
ligand_7_conformer_1_docked
     RDKit          3D

 46 48  0  0  0  0  0  0  0  0999 V2000
    1.3190   43.2880   50.7610 O   0  0  0  0  0  0  0  0  0  0  0  0
    2.1720   43.3890   51.6840 C   0  0  0  0  0  0  0  0  0  0  0  0
    1.8610   42.9000   52.9970 N   0  0  0  0  0  0  0  0  0  0  0  0
    0.5360   42.3580   53.3110 C   0  0  0  0  0  0  0  0  0  0  0  0
   -0.2760   43.2570   54.2670 C   0  0  0  0  0  0  0  0  0  0  0  0
   -1.4570   43.9520   53.5690 C   0  0  0  0  0  0  0  0  0  0  0  0
   -2.2470   44.8330   54.5690 C   0  0  0  0  0  0  0  0  0  0  0  0
   -1.5650   45.0470   55.7950 O   0  0  0  0  0  0  0  0  0  0  0  0
   -0.2320   45.4550   55.5500 C   0  0  0  0  0  0  0  0  0  0  0  0
    0.6060   44.2810   55.0160 C   0  0  0  0  0  0  0  0  0  0  0  0
    3.4800   44.0340   51.4160 C   0  0  0  0  0  0  0  0  0  0  0  0
    3.6040   45.4200   51.5880 C   0  0  0  0  0  0  0  0  0  0  0  0
    4.7790   46.0440   51.3270 N   0  0  0  0  0  0  0  0  0  0  0  0
    5.8660   45.3480   50.9070 C   0  0  0  0  0  0  0  0  0  0  0  0
    7.0970   46.0180   50.6010 N   0  0  0  0  0  0  0  0  0  0  0  0
    8.0520   46.4450   51.5870 C   0  0  0  0  0  0  0  0  0  0  0  0
    7.6660   47.2230   52.6940 C   0  0  0  0  0  0  0  0  0  0  0  0
    8.6100   47.6030   53.6530 C   0  0  0  0  0  0  0  0  0  0  0  0
    9.9410   47.2000   53.5230 C   0  0  0  0  0  0  0  0  0  0  0  0
   10.3290   46.4080   52.4400 C   0  0  0  0  0  0  0  0  0  0  0  0
    9.3880   46.0250   51.4800 C   0  0  0  0  0  0  0  0  0  0  0  0
    5.7740   44.0050   50.7260 N   0  0  0  0  0  0  0  0  0  0  0  0
    4.6240   43.3200   50.9770 C   0  0  0  0  0  0  0  0  0  0  0  0
    4.6290   41.8260   50.7730 C   0  0  0  0  0  0  0  0  0  0  0  0
    5.8950   41.3960   50.4120 F   0  0  0  0  0  0  0  0  0  0  0  0
    3.7490   41.4890   49.7620 F   0  0  0  0  0  0  0  0  0  0  0  0
    4.2700   41.1770   51.9400 F   0  0  0  0  0  0  0  0  0  0  0  0
    2.6130   42.9110   53.7210 H   0  0  0  0  0  0  0  0  0  0  0  0
   -0.0275   42.2460   52.3730 H   0  0  0  0  0  0  0  0  0  0  0  0
    0.6883   41.3939   53.8183 H   0  0  0  0  0  0  0  0  0  0  0  0
   -0.6974   42.5756   55.0208 H   0  0  0  0  0  0  0  0  0  0  0  0
   -1.0730   44.5854   52.7558 H   0  0  0  0  0  0  0  0  0  0  0  0
   -2.1323   43.1816   53.1685 H   0  0  0  0  0  0  0  0  0  0  0  0
   -2.4347   45.8100   54.0997 H   0  0  0  0  0  0  0  0  0  0  0  0
   -3.1788   44.2985   54.8057 H   0  0  0  0  0  0  0  0  0  0  0  0
   -0.2333   46.2655   54.8063 H   0  0  0  0  0  0  0  0  0  0  0  0
    0.2103   45.8046   56.4945 H   0  0  0  0  0  0  0  0  0  0  0  0
    1.3687   44.6700   54.3254 H   0  0  0  0  0  0  0  0  0  0  0  0
    1.0775   43.7738   55.8706 H   0  0  0  0  0  0  0  0  0  0  0  0
    2.7410   46.0058   51.9375 H   0  0  0  0  0  0  0  0  0  0  0  0
    7.2680   46.2810   49.6040 H   0  0  0  0  0  0  0  0  0  0  0  0
    6.6167   47.5337   52.8055 H   0  0  0  0  0  0  0  0  0  0  0  0
    8.3041   48.2200   54.5107 H   0  0  0  0  0  0  0  0  0  0  0  0
   10.6840   47.5065   54.2740 H   0  0  0  0  0  0  0  0  0  0  0  0
   11.3761   46.0853   52.3424 H   0  0  0  0  0  0  0  0  0  0  0  0
    9.6957   45.3908   50.6355 H   0  0  0  0  0  0  0  0  0  0  0  0
  1  2  2  0
  2  3  1  0
  3  4  1  0
  4  5  1  0
  5  6  1  0
  6  7  1  0
  7  8  1  0
  8  9  1  0
  9 10  1  0
  2 11  1  0
 11 12  2  0
 12 13  1  0
 13 14  2  0
 14 15  1  0
 15 16  1  0
 16 17  2  0
 17 18  1  0
 18 19  2  0
 19 20  1  0
 20 21  2  0
 14 22  1  0
 22 23  2  0
 23 24  1  0
 24 25  1  0
 24 26  1  0
 24 27  1  0
 10  5  1  0
 23 11  1  0
 21 16  1  0
  3 28  1  0
  4 29  1  0
  4 30  1  0
  5 31  1  0
  6 32  1  0
  6 33  1  0
  7 34  1  0
  7 35  1  0
  9 36  1  0
  9 37  1  0
 10 38  1  0
 10 39  1  0
 12 40  1  0
 15 41  1  0
 17 42  1  0
 18 43  1  0
 19 44  1  0
 20 45  1  0
 21 46  1  0
M  END
>  <meeko>  (2) 
{"is_sidechain": [false], "free_energy": -8.438, "intermolecular_energy": -11.505, "internal_energy": -0.755}

$$$$
ligand_7_conformer_1_docked
     RDKit          3D

 46 48  0  0  0  0  0  0  0  0999 V2000
    4.2330   40.7830   51.0600 O   0  0  0  0  0  0  0  0  0  0  0  0
    4.4080   41.7310   50.2480 C   0  0  0  0  0  0  0  0  0  0  0  0
    4.0590   41.5590   48.8670 N   0  0  0  0  0  0  0  0  0  0  0  0
    3.5780   40.2710   48.3600 C   0  0  0  0  0  0  0  0  0  0  0  0
    3.2990   40.2820   46.8420 C   0  0  0  0  0  0  0  0  0  0  0  0
    3.0430   38.8750   46.2750 C   0  0  0  0  0  0  0  0  0  0  0  0
    2.7570   38.9390   44.7540 C   0  0  0  0  0  0  0  0  0  0  0  0
    3.0810   40.1910   44.1690 O   0  0  0  0  0  0  0  0  0  0  0  0
    4.3800   40.5930   44.5590 C   0  0  0  0  0  0  0  0  0  0  0  0
    4.3980   41.0120   46.0390 C   0  0  0  0  0  0  0  0  0  0  0  0
    4.9960   43.0090   50.7170 C   0  0  0  0  0  0  0  0  0  0  0  0
    4.2730   43.7990   51.6220 C   0  0  0  0  0  0  0  0  0  0  0  0
    4.7710   44.9860   52.0510 N   0  0  0  0  0  0  0  0  0  0  0  0
    5.9820   45.4320   51.6310 C   0  0  0  0  0  0  0  0  0  0  0  0
    6.4890   46.7030   52.0620 N   0  0  0  0  0  0  0  0  0  0  0  0
    7.7260   46.8810   52.7740 C   0  0  0  0  0  0  0  0  0  0  0  0
    8.9680   46.6450   52.1570 C   0  0  0  0  0  0  0  0  0  0  0  0
   10.1570   46.8500   52.8630 C   0  0  0  0  0  0  0  0  0  0  0  0
   10.1170   47.3050   54.1830 C   0  0  0  0  0  0  0  0  0  0  0  0
    8.8890   47.5650   54.7970 C   0  0  0  0  0  0  0  0  0  0  0  0
    7.6980   47.3610   54.0930 C   0  0  0  0  0  0  0  0  0  0  0  0
    6.7020   44.6900   50.7500 N   0  0  0  0  0  0  0  0  0  0  0  0
    6.2590   43.4890   50.2870 C   0  0  0  0  0  0  0  0  0  0  0  0
    7.1440   42.7250   49.3340 C   0  0  0  0  0  0  0  0  0  0  0  0
    6.5850   42.7150   48.0660 F   0  0  0  0  0  0  0  0  0  0  0  0
    7.2760   41.4180   49.7630 F   0  0  0  0  0  0  0  0  0  0  0  0
    8.3900   43.3180   49.2510 F   0  0  0  0  0  0  0  0  0  0  0  0
    4.1270   42.3850   48.2310 H   0  0  0  0  0  0  0  0  0  0  0  0
    4.3398   39.5058   48.5701 H   0  0  0  0  0  0  0  0  0  0  0  0
    2.6256   40.0550   48.8663 H   0  0  0  0  0  0  0  0  0  0  0  0
    2.3693   40.8572   46.7203 H   0  0  0  0  0  0  0  0  0  0  0  0
    3.9306   38.2490   46.4491 H   0  0  0  0  0  0  0  0  0  0  0  0
    2.1661   38.4449   46.7810 H   0  0  0  0  0  0  0  0  0  0  0  0
    3.3495   38.1579   44.2552 H   0  0  0  0  0  0  0  0  0  0  0  0
    1.6751   38.7905   44.6218 H   0  0  0  0  0  0  0  0  0  0  0  0
    5.0767   39.7544   44.4126 H   0  0  0  0  0  0  0  0  0  0  0  0
    4.6836   41.4531   43.9442 H   0  0  0  0  0  0  0  0  0  0  0  0
    5.3798   40.7655   46.4693 H   0  0  0  0  0  0  0  0  0  0  0  0
    4.2089   42.0941   46.0959 H   0  0  0  0  0  0  0  0  0  0  0  0
    3.2944   43.4538   51.9871 H   0  0  0  0  0  0  0  0  0  0  0  0
    5.8790   47.5400   51.9190 H   0  0  0  0  0  0  0  0  0  0  0  0
    9.0037   46.2975   51.1140 H   0  0  0  0  0  0  0  0  0  0  0  0
   11.1248   46.6529   52.3787 H   0  0  0  0  0  0  0  0  0  0  0  0
   11.0531   47.4588   54.7397 H   0  0  0  0  0  0  0  0  0  0  0  0
    8.8591   47.9302   55.8342 H   0  0  0  0  0  0  0  0  0  0  0  0
    6.7336   47.5779   54.5756 H   0  0  0  0  0  0  0  0  0  0  0  0
  1  2  2  0
  2  3  1  0
  3  4  1  0
  4  5  1  0
  5  6  1  0
  6  7  1  0
  7  8  1  0
  8  9  1  0
  9 10  1  0
  2 11  1  0
 11 12  2  0
 12 13  1  0
 13 14  2  0
 14 15  1  0
 15 16  1  0
 16 17  2  0
 17 18  1  0
 18 19  2  0
 19 20  1  0
 20 21  2  0
 14 22  1  0
 22 23  2  0
 23 24  1  0
 24 25  1  0
 24 26  1  0
 24 27  1  0
 10  5  1  0
 23 11  1  0
 21 16  1  0
  3 28  1  0
  4 29  1  0
  4 30  1  0
  5 31  1  0
  6 32  1  0
  6 33  1  0
  7 34  1  0
  7 35  1  0
  9 36  1  0
  9 37  1  0
 10 38  1  0
 10 39  1  0
 12 40  1  0
 15 41  1  0
 17 42  1  0
 18 43  1  0
 19 44  1  0
 20 45  1  0
 21 46  1  0
M  END
>  <meeko>  (3) 
{"is_sidechain": [false], "free_energy": -8.278, "intermolecular_energy": -11.655, "internal_energy": -0.391}

$$$$
ligand_7_conformer_1_docked
     RDKit          3D

 46 48  0  0  0  0  0  0  0  0999 V2000
    4.4670   40.7630   50.9250 O   0  0  0  0  0  0  0  0  0  0  0  0
    4.7320   41.5010   49.9370 C   0  0  0  0  0  0  0  0  0  0  0  0
    4.2870   41.1210   48.6270 N   0  0  0  0  0  0  0  0  0  0  0  0
    3.5990   39.8480   48.3970 C   0  0  0  0  0  0  0  0  0  0  0  0
    3.1160   39.6730   46.9430 C   0  0  0  0  0  0  0  0  0  0  0  0
    3.1970   38.2140   46.4600 C   0  0  0  0  0  0  0  0  0  0  0  0
    2.6920   38.0880   45.0010 C   0  0  0  0  0  0  0  0  0  0  0  0
    2.5550   39.3370   44.3400 O   0  0  0  0  0  0  0  0  0  0  0  0
    3.7260   40.1120   44.5100 C   0  0  0  0  0  0  0  0  0  0  0  0
    3.8330   40.6230   45.9570 C   0  0  0  0  0  0  0  0  0  0  0  0
    5.5220   42.7400   50.1300 C   0  0  0  0  0  0  0  0  0  0  0  0
    6.7600   42.8660   49.4840 C   0  0  0  0  0  0  0  0  0  0  0  0
    7.5190   43.9760   49.6600 N   0  0  0  0  0  0  0  0  0  0  0  0
    7.0980   44.9970   50.4490 C   0  0  0  0  0  0  0  0  0  0  0  0
    7.9200   46.1540   50.6570 N   0  0  0  0  0  0  0  0  0  0  0  0
    8.4100   46.5780   51.9410 C   0  0  0  0  0  0  0  0  0  0  0  0
    7.5330   46.9960   52.9590 C   0  0  0  0  0  0  0  0  0  0  0  0
    8.0320   47.3780   54.2070 C   0  0  0  0  0  0  0  0  0  0  0  0
    9.4060   47.3350   54.4550 C   0  0  0  0  0  0  0  0  0  0  0  0
   10.2830   46.8990   53.4580 C   0  0  0  0  0  0  0  0  0  0  0  0
    9.7870   46.5140   52.2090 C   0  0  0  0  0  0  0  0  0  0  0  0
    5.9060   44.9000   51.0910 N   0  0  0  0  0  0  0  0  0  0  0  0
    5.0960   43.8150   50.9510 C   0  0  0  0  0  0  0  0  0  0  0  0
    3.7770   43.8140   51.6830 C   0  0  0  0  0  0  0  0  0  0  0  0
    3.8120   42.9080   52.7310 F   0  0  0  0  0  0  0  0  0  0  0  0
    2.7630   43.4440   50.8200 F   0  0  0  0  0  0  0  0  0  0  0  0
    3.5130   45.0670   52.2050 F   0  0  0  0  0  0  0  0  0  0  0  0
    4.4380   41.7900   47.8390 H   0  0  0  0  0  0  0  0  0  0  0  0
    4.2918   39.0278   48.6364 H   0  0  0  0  0  0  0  0  0  0  0  0
    2.7075   39.8370   49.0413 H   0  0  0  0  0  0  0  0  0  0  0  0
    2.0528   39.9547   46.9544 H   0  0  0  0  0  0  0  0  0  0  0  0
    4.2423   37.8751   46.5102 H   0  0  0  0  0  0  0  0  0  0  0  0
    2.5612   37.5926   47.1078 H   0  0  0  0  0  0  0  0  0  0  0  0
    3.4076   37.4719   44.4367 H   0  0  0  0  0  0  0  0  0  0  0  0
    1.6917   37.6322   45.0427 H   0  0  0  0  0  0  0  0  0  0  0  0
    4.6056   39.4930   44.2794 H   0  0  0  0  0  0  0  0  0  0  0  0
    3.6801   40.9766   43.8315 H   0  0  0  0  0  0  0  0  0  0  0  0
    4.8951   40.6925   46.2348 H   0  0  0  0  0  0  0  0  0  0  0  0
    3.3504   41.6099   46.0131 H   0  0  0  0  0  0  0  0  0  0  0  0
    7.1185   42.0581   48.8292 H   0  0  0  0  0  0  0  0  0  0  0  0
    8.1060   46.7690   49.8320 H   0  0  0  0  0  0  0  0  0  0  0  0
    6.4494   47.0222   52.7714 H   0  0  0  0  0  0  0  0  0  0  0  0
    7.3418   47.7131   54.9953 H   0  0  0  0  0  0  0  0  0  0  0  0
    9.7978   47.6444   55.4352 H   0  0  0  0  0  0  0  0  0  0  0  0
   11.3642   46.8588   53.6562 H   0  0  0  0  0  0  0  0  0  0  0  0
   10.4794   46.1588   51.4315 H   0  0  0  0  0  0  0  0  0  0  0  0
  1  2  2  0
  2  3  1  0
  3  4  1  0
  4  5  1  0
  5  6  1  0
  6  7  1  0
  7  8  1  0
  8  9  1  0
  9 10  1  0
  2 11  1  0
 11 12  2  0
 12 13  1  0
 13 14  2  0
 14 15  1  0
 15 16  1  0
 16 17  2  0
 17 18  1  0
 18 19  2  0
 19 20  1  0
 20 21  2  0
 14 22  1  0
 22 23  2  0
 23 24  1  0
 24 25  1  0
 24 26  1  0
 24 27  1  0
 10  5  1  0
 23 11  1  0
 21 16  1  0
  3 28  1  0
  4 29  1  0
  4 30  1  0
  5 31  1  0
  6 32  1  0
  6 33  1  0
  7 34  1  0
  7 35  1  0
  9 36  1  0
  9 37  1  0
 10 38  1  0
 10 39  1  0
 12 40  1  0
 15 41  1  0
 17 42  1  0
 18 43  1  0
 19 44  1  0
 20 45  1  0
 21 46  1  0
M  END
>  <meeko>  (4) 
{"is_sidechain": [false], "free_energy": -8.1, "intermolecular_energy": -11.547, "internal_energy": -0.257}

$$$$
ligand_7_conformer_1_docked
     RDKit          3D

 46 48  0  0  0  0  0  0  0  0999 V2000
    1.9000   40.4720   46.2260 O   0  0  0  0  0  0  0  0  0  0  0  0
    3.0680   39.9970   46.2480 C   0  0  0  0  0  0  0  0  0  0  0  0
    3.3500   38.7700   45.5600 N   0  0  0  0  0  0  0  0  0  0  0  0
    2.2880   38.0100   44.8960 C   0  0  0  0  0  0  0  0  0  0  0  0
    2.0280   36.6350   45.5470 C   0  0  0  0  0  0  0  0  0  0  0  0
    1.2830   35.6660   44.6120 C   0  0  0  0  0  0  0  0  0  0  0  0
    1.0550   34.3000   45.3040 C   0  0  0  0  0  0  0  0  0  0  0  0
    1.2970   34.3260   46.7030 O   0  0  0  0  0  0  0  0  0  0  0  0
    0.6280   35.4240   47.2950 C   0  0  0  0  0  0  0  0  0  0  0  0
    1.3120   36.7480   46.9120 C   0  0  0  0  0  0  0  0  0  0  0  0
    4.1350   40.6930   47.0060 C   0  0  0  0  0  0  0  0  0  0  0  0
    4.2570   40.4590   48.3830 C   0  0  0  0  0  0  0  0  0  0  0  0
    5.2060   41.0990   49.1090 N   0  0  0  0  0  0  0  0  0  0  0  0
    6.0700   41.9690   48.5260 C   0  0  0  0  0  0  0  0  0  0  0  0
    7.0500   42.6680   49.3060 N   0  0  0  0  0  0  0  0  0  0  0  0
    6.7800   43.8580   50.0660 C   0  0  0  0  0  0  0  0  0  0  0  0
    5.5920   44.0010   50.8060 C   0  0  0  0  0  0  0  0  0  0  0  0
    5.3650   45.1570   51.5590 C   0  0  0  0  0  0  0  0  0  0  0  0
    6.3250   46.1720   51.5910 C   0  0  0  0  0  0  0  0  0  0  0  0
    7.5180   46.0270   50.8780 C   0  0  0  0  0  0  0  0  0  0  0  0
    7.7490   44.8720   50.1260 C   0  0  0  0  0  0  0  0  0  0  0  0
    5.9720   42.2200   47.1950 N   0  0  0  0  0  0  0  0  0  0  0  0
    5.0440   41.6040   46.4110 C   0  0  0  0  0  0  0  0  0  0  0  0
    5.0340   41.9280   44.9370 C   0  0  0  0  0  0  0  0  0  0  0  0
    3.7400   42.1820   44.5120 F   0  0  0  0  0  0  0  0  0  0  0  0
    5.5270   40.8540   44.2190 F   0  0  0  0  0  0  0  0  0  0  0  0
    5.7990   43.0510   44.6830 F   0  0  0  0  0  0  0  0  0  0  0  0
    4.3410   38.4430   45.5150 H   0  0  0  0  0  0  0  0  0  0  0  0
    1.3591   38.5978   44.9370 H   0  0  0  0  0  0  0  0  0  0  0  0
    2.6145   37.8261   43.8618 H   0  0  0  0  0  0  0  0  0  0  0  0
    3.0241   36.2074   45.7339 H   0  0  0  0  0  0  0  0  0  0  0  0
    0.3091   36.1012   44.3435 H   0  0  0  0  0  0  0  0  0  0  0  0
    1.8931   35.5070   43.7106 H   0  0  0  0  0  0  0  0  0  0  0  0
    0.0114   33.9950   45.1368 H   0  0  0  0  0  0  0  0  0  0  0  0
    1.7725   33.5912   44.8648 H   0  0  0  0  0  0  0  0  0  0  0  0
   -0.4150   35.4422   46.9461 H   0  0  0  0  0  0  0  0  0  0  0  0
    0.6625   35.3114   48.3887 H   0  0  0  0  0  0  0  0  0  0  0  0
    0.5514   37.5405   46.8533 H   0  0  0  0  0  0  0  0  0  0  0  0
    2.0630   36.9859   47.6797 H   0  0  0  0  0  0  0  0  0  0  0  0
    3.5770   39.7502   48.8782 H   0  0  0  0  0  0  0  0  0  0  0  0
    8.0390   42.3330   49.2500 H   0  0  0  0  0  0  0  0  0  0  0  0
    4.8384   43.1998   50.7921 H   0  0  0  0  0  0  0  0  0  0  0  0
    4.4295   45.2677   52.1270 H   0  0  0  0  0  0  0  0  0  0  0  0
    6.1416   47.0846   52.1771 H   0  0  0  0  0  0  0  0  0  0  0  0
    8.2764   46.8232   50.9087 H   0  0  0  0  0  0  0  0  0  0  0  0
    8.6957   44.7567   49.5778 H   0  0  0  0  0  0  0  0  0  0  0  0
  1  2  2  0
  2  3  1  0
  3  4  1  0
  4  5  1  0
  5  6  1  0
  6  7  1  0
  7  8  1  0
  8  9  1  0
  9 10  1  0
  2 11  1  0
 11 12  2  0
 12 13  1  0
 13 14  2  0
 14 15  1  0
 15 16  1  0
 16 17  2  0
 17 18  1  0
 18 19  2  0
 19 20  1  0
 20 21  2  0
 14 22  1  0
 22 23  2  0
 23 24  1  0
 24 25  1  0
 24 26  1  0
 24 27  1  0
 10  5  1  0
 23 11  1  0
 21 16  1  0
  3 28  1  0
  4 29  1  0
  4 30  1  0
  5 31  1  0
  6 32  1  0
  6 33  1  0
  7 34  1  0
  7 35  1  0
  9 36  1  0
  9 37  1  0
 10 38  1  0
 10 39  1  0
 12 40  1  0
 15 41  1  0
 17 42  1  0
 18 43  1  0
 19 44  1  0
 20 45  1  0
 21 46  1  0
M  END
>  <meeko>  (5) 
{"is_sidechain": [false], "free_energy": -7.197, "intermolecular_energy": -9.993, "internal_energy": -0.591}

$$$$
