MODEL 1
REMARK VINA RESULT:    -7.736      0.000      0.000
REMARK INTER + INTRA:         -11.910
REMARK INTER:                 -11.127
REMARK INTRA:                  -0.782
REMARK UNBOUND:                -0.782
REMARK SMILES CCN(Cc1cn(Cc2nccs2)nn1)c1cccc(CO)c1
REMARK SMILES IDX 3 1 2 2 1 3 4 4 5 5 6 6 15 7 7 8 14 9 8 10 9 11 10 12 13 13
REMARK SMILES IDX 11 14 12 15 16 16 17 17 23 18 18 19 20 20 19 21 21 22 22 23
REMARK H PARENT 22 24
ROOT
ATOM      1  N   UNL     1       6.070  46.678  52.205  1.00  0.00    -0.366 N 
ENDROOT
BRANCH   1   2
ATOM      2  C   UNL     1       5.504  45.785  51.183  1.00  0.00     0.113 C 
ATOM      3  C   UNL     1       5.429  44.350  51.699  1.00  0.00     0.027 C 
ENDBRANCH   1   2
BRANCH   1   4
ATOM      4  C   UNL     1       5.186  47.530  53.009  1.00  0.00     0.176 C 
BRANCH   4   5
ATOM      5  C   UNL     1       4.286  46.694  53.864  1.00  0.00     0.102 A 
ATOM      6  C   UNL     1       2.946  46.455  53.658  1.00  0.00     0.137 A 
ATOM      7  N   UNL     1       4.695  45.964  54.921  1.00  0.00    -0.134 NA
ATOM      8  N   UNL     1       2.576  45.585  54.611  1.00  0.00    -0.245 N 
ATOM      9  N   UNL     1       3.634  45.293  55.352  1.00  0.00    -0.067 NA
BRANCH   8  10
ATOM     10  C   UNL     1       1.280  44.927  54.727  1.00  0.00     0.213 C 
BRANCH  10  11
ATOM     11  C   UNL     1       0.957  44.225  53.449  1.00  0.00     0.114 A 
ATOM     12  N   UNL     1       1.600  43.117  53.022  1.00  0.00    -0.248 NA
ATOM     13  S   UNL     1      -0.128  44.789  52.294  1.00  0.00    -0.125 S 
ATOM     14  C   UNL     1       1.182  42.732  51.788  1.00  0.00     0.123 A 
ATOM     15  C   UNL     1       0.211  43.545  51.214  1.00  0.00     0.087 A 
ENDBRANCH  10  11
ENDBRANCH   8  10
ENDBRANCH   4   5
ENDBRANCH   1   4
BRANCH   1  16
ATOM     16  C   UNL     1       7.491  46.699  52.436  1.00  0.00     0.037 A 
ATOM     17  C   UNL     1       8.381  46.339  51.413  1.00  0.00     0.026 A 
ATOM     18  C   UNL     1       8.001  47.103  53.681  1.00  0.00     0.032 A 
ATOM     19  C   UNL     1       9.760  46.378  51.632  1.00  0.00     0.003 A 
ATOM     20  C   UNL     1       9.385  47.133  53.909  1.00  0.00    -0.021 A 
ATOM     21  C   UNL     1      10.263  46.779  52.873  1.00  0.00     0.006 A 
BRANCH  20  22
ATOM     22  C   UNL     1       9.922  47.613  55.229  1.00  0.00     0.191 C 
BRANCH  22  23
ATOM     23  O   UNL     1       9.143  48.675  55.706  1.00  0.00    -0.392 OA
ATOM     24  H   UNL     1       8.238  48.306  55.883  1.00  0.00     0.211 HD
ENDBRANCH  22  23
ENDBRANCH  20  22
ENDBRANCH   1  16
TORSDOF 8
ENDMDL
MODEL 2
REMARK VINA RESULT:    -7.698      3.303      6.144
REMARK INTER + INTRA:         -11.856
REMARK INTER:                 -10.902
REMARK INTRA:                  -0.953
REMARK UNBOUND:                -0.782
REMARK SMILES CCN(Cc1cn(Cc2nccs2)nn1)c1cccc(CO)c1
REMARK SMILES IDX 3 1 2 2 1 3 4 4 5 5 6 6 15 7 7 8 14 9 8 10 9 11 10 12 13 13
REMARK SMILES IDX 11 14 12 15 16 16 17 17 23 18 18 19 20 20 19 21 21 22 22 23
REMARK H PARENT 22 24
ROOT
ATOM      1  N   UNL     1       3.631  44.488  52.236  1.00  0.00    -0.366 N 
ENDROOT
BRANCH   1   2
ATOM      2  C   UNL     1       2.571  45.281  51.596  1.00  0.00     0.113 C 
ATOM      3  C   UNL     1       3.158  46.505  50.895  1.00  0.00     0.027 C 
ENDBRANCH   1   2
BRANCH   1   4
ATOM      4  C   UNL     1       3.760  44.476  53.698  1.00  0.00     0.176 C 
BRANCH   4   5
ATOM      5  C   UNL     1       4.658  45.582  54.155  1.00  0.00     0.102 A 
ATOM      6  C   UNL     1       6.022  45.515  54.328  1.00  0.00     0.137 A 
ATOM      7  N   UNL     1       4.261  46.853  54.371  1.00  0.00    -0.134 NA
ATOM      8  N   UNL     1       6.414  46.756  54.655  1.00  0.00    -0.245 N 
ATOM      9  N   UNL     1       5.352  47.546  54.667  1.00  0.00    -0.067 NA
BRANCH   8  10
ATOM     10  C   UNL     1       7.789  47.219  54.808  1.00  0.00     0.213 C 
BRANCH  10  11
ATOM     11  C   UNL     1       8.551  46.950  53.552  1.00  0.00     0.114 A 
ATOM     12  N   UNL     1       9.664  46.187  53.502  1.00  0.00    -0.248 NA
ATOM     13  S   UNL     1       8.235  47.673  52.066  1.00  0.00    -0.125 S 
ATOM     14  C   UNL     1      10.219  46.179  52.262  1.00  0.00     0.123 A 
ATOM     15  C   UNL     1       9.557  46.954  51.315  1.00  0.00     0.087 A 
ENDBRANCH  10  11
ENDBRANCH   8  10
ENDBRANCH   4   5
ENDBRANCH   1   4
BRANCH   1  16
ATOM     16  C   UNL     1       4.528  43.700  51.430  1.00  0.00     0.037 A 
ATOM     17  C   UNL     1       4.243  42.353  51.165  1.00  0.00     0.026 A 
ATOM     18  C   UNL     1       5.685  44.280  50.883  1.00  0.00     0.032 A 
ATOM     19  C   UNL     1       5.103  41.594  50.367  1.00  0.00     0.003 A 
ATOM     20  C   UNL     1       6.558  43.519  50.091  1.00  0.00    -0.021 A 
ATOM     21  C   UNL     1       6.254  42.174  49.826  1.00  0.00     0.006 A 
BRANCH  20  22
ATOM     22  C   UNL     1       7.767  44.161  49.471  1.00  0.00     0.191 C 
BRANCH  22  23
ATOM     23  O   UNL     1       8.517  43.202  48.778  1.00  0.00    -0.392 OA
ATOM     24  H   UNL     1       9.452  43.282  49.105  1.00  0.00     0.211 HD
ENDBRANCH  22  23
ENDBRANCH  20  22
ENDBRANCH   1  16
TORSDOF 8
ENDMDL
MODEL 3
REMARK VINA RESULT:    -7.662      1.568      2.472
REMARK INTER + INTRA:         -11.803
REMARK INTER:                 -11.435
REMARK INTRA:                  -0.368
REMARK UNBOUND:                -0.782
REMARK SMILES CCN(Cc1cn(Cc2nccs2)nn1)c1cccc(CO)c1
REMARK SMILES IDX 3 1 2 2 1 3 4 4 5 5 6 6 15 7 7 8 14 9 8 10 9 11 10 12 13 13
REMARK SMILES IDX 11 14 12 15 16 16 17 17 23 18 18 19 20 20 19 21 21 22 22 23
REMARK H PARENT 22 24
ROOT
ATOM      1  N   UNL     1       6.044  46.628  52.200  1.00  0.00    -0.366 N 
ENDROOT
BRANCH   1   2
ATOM      2  C   UNL     1       5.490  45.836  51.091  1.00  0.00     0.113 C 
ATOM      3  C   UNL     1       5.721  44.344  51.323  1.00  0.00     0.027 C 
ENDBRANCH   1   2
BRANCH   1   4
ATOM      4  C   UNL     1       5.145  47.365  53.098  1.00  0.00     0.176 C 
BRANCH   4   5
ATOM      5  C   UNL     1       3.826  46.668  53.209  1.00  0.00     0.102 A 
ATOM      6  C   UNL     1       3.556  45.531  53.937  1.00  0.00     0.137 A 
ATOM      7  N   UNL     1       2.672  47.123  52.681  1.00  0.00    -0.134 NA
ATOM      8  N   UNL     1       2.235  45.323  53.820  1.00  0.00    -0.245 N 
ATOM      9  N   UNL     1       1.719  46.287  53.074  1.00  0.00    -0.067 NA
BRANCH   8  10
ATOM     10  C   UNL     1       1.451  44.314  54.522  1.00  0.00     0.213 C 
BRANCH  10  11
ATOM     11  C   UNL     1       0.483  44.982  55.443  1.00  0.00     0.114 A 
ATOM     12  N   UNL     1       0.856  45.762  56.480  1.00  0.00    -0.248 NA
ATOM     13  S   UNL     1      -1.181  44.740  55.424  1.00  0.00    -0.125 S 
ATOM     14  C   UNL     1      -0.211  46.170  57.217  1.00  0.00     0.123 A 
ATOM     15  C   UNL     1      -1.444  45.701  56.778  1.00  0.00     0.087 A 
ENDBRANCH  10  11
ENDBRANCH   8  10
ENDBRANCH   4   5
ENDBRANCH   1   4
BRANCH   1  16
ATOM     16  C   UNL     1       7.466  46.660  52.424  1.00  0.00     0.037 A 
ATOM     17  C   UNL     1       8.352  46.302  51.397  1.00  0.00     0.026 A 
ATOM     18  C   UNL     1       7.980  47.073  53.664  1.00  0.00     0.032 A 
ATOM     19  C   UNL     1       9.732  46.353  51.607  1.00  0.00     0.003 A 
ATOM     20  C   UNL     1       9.365  47.114  53.884  1.00  0.00    -0.021 A 
ATOM     21  C   UNL     1      10.239  46.762  52.844  1.00  0.00     0.006 A 
BRANCH  20  22
ATOM     22  C   UNL     1       9.906  47.603  55.198  1.00  0.00     0.191 C 
BRANCH  22  23
ATOM     23  O   UNL     1       9.142  48.683  55.660  1.00  0.00    -0.392 OA
ATOM     24  H   UNL     1       9.548  48.972  56.519  1.00  0.00     0.211 HD
ENDBRANCH  22  23
ENDBRANCH  20  22
ENDBRANCH   1  16
TORSDOF 8
ENDMDL
MODEL 4
REMARK VINA RESULT:    -7.513      1.516      2.521
REMARK INTER + INTRA:         -11.590
REMARK INTER:                 -10.768
REMARK INTRA:                  -0.822
REMARK UNBOUND:                -0.782
REMARK SMILES CCN(Cc1cn(Cc2nccs2)nn1)c1cccc(CO)c1
REMARK SMILES IDX 3 1 2 2 1 3 4 4 5 5 6 6 15 7 7 8 14 9 8 10 9 11 10 12 13 13
REMARK SMILES IDX 11 14 12 15 16 16 17 17 23 18 18 19 20 20 19 21 21 22 22 23
REMARK H PARENT 22 24
ROOT
ATOM      1  N   UNL     1       5.947  46.372  52.512  1.00  0.00    -0.366 N 
ENDROOT
BRANCH   1   2
ATOM      2  C   UNL     1       5.095  46.596  53.690  1.00  0.00     0.113 C 
ATOM      3  C   UNL     1       4.248  47.854  53.514  1.00  0.00     0.027 C 
ENDBRANCH   1   2
BRANCH   1   4
ATOM      4  C   UNL     1       5.340  46.042  51.217  1.00  0.00     0.176 C 
BRANCH   4   5
ATOM      5  C   UNL     1       4.567  44.764  51.309  1.00  0.00     0.102 A 
ATOM      6  C   UNL     1       3.197  44.630  51.288  1.00  0.00     0.137 A 
ATOM      7  N   UNL     1       5.119  43.534  51.326  1.00  0.00    -0.134 NA
ATOM      8  N   UNL     1       2.956  43.309  51.302  1.00  0.00    -0.245 N 
ATOM      9  N   UNL     1       4.114  42.668  51.315  1.00  0.00    -0.067 NA
BRANCH   8  10
ATOM     10  C   UNL     1       1.657  42.665  51.156  1.00  0.00     0.213 C 
BRANCH  10  11
ATOM     11  C   UNL     1       0.713  43.198  52.184  1.00  0.00     0.114 A 
ATOM     12  N   UNL     1       0.755  42.850  53.488  1.00  0.00    -0.248 NA
ATOM     13  S   UNL     1      -0.617  44.173  51.850  1.00  0.00    -0.125 S 
ATOM     14  C   UNL     1      -0.269  43.401  54.192  1.00  0.00     0.123 A 
ATOM     15  C   UNL     1      -1.146  44.180  53.446  1.00  0.00     0.087 A 
ENDBRANCH  10  11
ENDBRANCH   8  10
ENDBRANCH   4   5
ENDBRANCH   1   4
BRANCH   1  16
ATOM     16  C   UNL     1       7.377  46.502  52.622  1.00  0.00     0.037 A 
ATOM     17  C   UNL     1       8.203  46.179  51.535  1.00  0.00     0.026 A 
ATOM     18  C   UNL     1       7.957  46.976  53.810  1.00  0.00     0.032 A 
ATOM     19  C   UNL     1       9.589  46.324  51.635  1.00  0.00     0.003 A 
ATOM     20  C   UNL     1       9.349  47.112  53.919  1.00  0.00    -0.021 A 
ATOM     21  C   UNL     1      10.162  46.794  52.820  1.00  0.00     0.006 A 
BRANCH  20  22
ATOM     22  C   UNL     1       9.957  47.665  55.178  1.00  0.00     0.191 C 
BRANCH  22  23
ATOM     23  O   UNL     1       9.163  48.707  55.676  1.00  0.00    -0.392 OA
ATOM     24  H   UNL     1       8.244  48.342  55.774  1.00  0.00     0.211 HD
ENDBRANCH  22  23
ENDBRANCH  20  22
ENDBRANCH   1  16
TORSDOF 8
ENDMDL
MODEL 5
REMARK VINA RESULT:    -7.367      3.380      4.308
REMARK INTER + INTRA:         -11.379
REMARK INTER:                 -10.966
REMARK INTRA:                  -0.414
REMARK UNBOUND:                -0.782
REMARK SMILES CCN(Cc1cn(Cc2nccs2)nn1)c1cccc(CO)c1
REMARK SMILES IDX 3 1 2 2 1 3 4 4 5 5 6 6 15 7 7 8 14 9 8 10 9 11 10 12 13 13
REMARK SMILES IDX 11 14 12 15 16 16 17 17 23 18 18 19 20 20 19 21 21 22 22 23
REMARK H PARENT 22 24
ROOT
ATOM      1  N   UNL     1       5.850  46.130  53.030  1.00  0.00    -0.366 N 
ENDROOT
BRANCH   1   2
ATOM      2  C   UNL     1       5.214  45.982  54.348  1.00  0.00     0.113 C 
ATOM      3  C   UNL     1       5.592  44.645  54.984  1.00  0.00     0.027 C 
ENDBRANCH   1   2
BRANCH   1   4
ATOM      4  C   UNL     1       5.040  46.044  51.809  1.00  0.00     0.176 C 
BRANCH   4   5
ATOM      5  C   UNL     1       4.891  44.619  51.377  1.00  0.00     0.102 A 
ATOM      6  C   UNL     1       5.687  43.946  50.478  1.00  0.00     0.137 A 
ATOM      7  N   UNL     1       3.999  43.751  51.895  1.00  0.00    -0.134 NA
ATOM      8  N   UNL     1       5.244  42.679  50.470  1.00  0.00    -0.245 N 
ATOM      9  N   UNL     1       4.241  42.575  51.328  1.00  0.00    -0.067 NA
BRANCH   8  10
ATOM     10  C   UNL     1       5.852  41.552  49.773  1.00  0.00     0.213 C 
BRANCH  10  11
ATOM     11  C   UNL     1       5.119  41.295  48.497  1.00  0.00     0.114 A 
ATOM     12  N   UNL     1       4.006  40.535  48.416  1.00  0.00    -0.248 NA
ATOM     13  S   UNL     1       5.648  41.775  46.974  1.00  0.00    -0.125 S 
ATOM     14  C   UNL     1       3.589  40.382  47.132  1.00  0.00     0.123 A 
ATOM     15  C   UNL     1       4.382  41.008  46.176  1.00  0.00     0.087 A 
ENDBRANCH  10  11
ENDBRANCH   8  10
ENDBRANCH   4   5
ENDBRANCH   1   4
BRANCH   1  16
ATOM     16  C   UNL     1       7.264  46.388  52.937  1.00  0.00     0.037 A 
ATOM     17  C   UNL     1       7.938  46.205  51.721  1.00  0.00     0.026 A 
ATOM     18  C   UNL     1       7.976  46.847  54.057  1.00  0.00     0.032 A 
ATOM     19  C   UNL     1       9.306  46.474  51.626  1.00  0.00     0.003 A 
ATOM     20  C   UNL     1       9.352  47.106  53.970  1.00  0.00    -0.021 A 
ATOM     21  C   UNL     1      10.011  46.928  52.743  1.00  0.00     0.006 A 
BRANCH  20  22
ATOM     22  C   UNL     1      10.096  47.643  55.161  1.00  0.00     0.191 C 
BRANCH  22  23
ATOM     23  O   UNL     1       9.374  48.692  55.744  1.00  0.00    -0.392 OA
ATOM     24  H   UNL     1      10.021  49.214  56.289  1.00  0.00     0.211 HD
ENDBRANCH  22  23
ENDBRANCH  20  22
ENDBRANCH   1  16
TORSDOF 8
ENDMDL
