ligand_5_conformer_4_docked
     RDKit          3D

 36 38  0  0  0  0  0  0  0  0999 V2000
    5.5590   44.3720   53.5440 O   0  0  0  0  0  0  0  0  0  0  0  0
    5.0020   45.2370   52.8150 C   0  0  0  0  0  0  0  0  0  0  0  0
    5.7750   46.2710   52.1820 N   0  0  0  0  0  0  0  0  0  0  0  0
    7.1770   46.4830   52.4090 C   0  0  0  0  0  0  0  0  0  0  0  0
    8.1450   46.0520   51.4860 C   0  0  0  0  0  0  0  0  0  0  0  0
    9.5000   46.3000   51.7180 C   0  0  0  0  0  0  0  0  0  0  0  0
    9.9020   46.9890   52.8640 C   0  0  0  0  0  0  0  0  0  0  0  0
    8.9470   47.4390   53.7890 C   0  0  0  0  0  0  0  0  0  0  0  0
    9.3780   48.2200   55.0030 C   0  0  0  0  0  0  0  0  0  0  0  0
   10.5450   47.5370   55.7170 C   0  0  0  0  0  0  0  0  0  0  0  0
   10.6270   47.9850   57.0420 O   0  0  0  0  0  0  0  0  0  0  0  0
    7.5850   47.1980   53.5460 C   0  0  0  0  0  0  0  0  0  0  0  0
    3.5500   45.1550   52.6000 C   0  0  0  0  0  0  0  0  0  0  0  0
    2.9130   45.1410   51.3600 C   0  0  0  0  0  0  0  0  0  0  0  0
    1.5700   45.0910   51.5160 N   0  0  0  0  0  0  0  0  0  0  0  0
    1.3610   45.0570   52.8410 C   0  0  0  0  0  0  0  0  0  0  0  0
    0.1560   44.9650   53.4540 N   0  0  0  0  0  0  0  0  0  0  0  0
    0.1240   44.8920   54.8170 C   0  0  0  0  0  0  0  0  0  0  0  0
    1.2870   44.8830   55.5400 N   0  0  0  0  0  0  0  0  0  0  0  0
    2.5060   44.9640   54.9300 C   0  0  0  0  0  0  0  0  0  0  0  0
    3.6740   44.8980   55.6820 O   0  0  0  0  0  0  0  0  0  0  0  0
    2.5340   45.0840   53.5410 C   0  0  0  0  0  0  0  0  0  0  0  0
    5.2750   46.9580   51.5750 H   0  0  0  0  0  0  0  0  0  0  0  0
    7.8343   45.5168   50.5766 H   0  0  0  0  0  0  0  0  0  0  0  0
   10.2527   45.9514   50.9956 H   0  0  0  0  0  0  0  0  0  0  0  0
   10.9705   47.1797   53.0425 H   0  0  0  0  0  0  0  0  0  0  0  0
    9.6898   49.2271   54.6891 H   0  0  0  0  0  0  0  0  0  0  0  0
    8.5288   48.2753   55.7000 H   0  0  0  0  0  0  0  0  0  0  0  0
   10.3888   46.4482   55.7100 H   0  0  0  0  0  0  0  0  0  0  0  0
   11.4810   47.7840   55.1947 H   0  0  0  0  0  0  0  0  0  0  0  0
   10.1790   47.2940   57.5940 H   0  0  0  0  0  0  0  0  0  0  0  0
    6.8307   47.5731   54.2534 H   0  0  0  0  0  0  0  0  0  0  0  0
    3.4304   45.1670   50.3896 H   0  0  0  0  0  0  0  0  0  0  0  0
    0.8490   45.0700   50.7620 H   0  0  0  0  0  0  0  0  0  0  0  0
   -0.8432   44.8400   55.3383 H   0  0  0  0  0  0  0  0  0  0  0  0
    4.2760   45.7070   55.7810 H   0  0  0  0  0  0  0  0  0  0  0  0
  1  2  2  0
  2  3  1  0
  3  4  1  0
  4  5  2  0
  5  6  1  0
  6  7  2  0
  7  8  1  0
  8  9  1  0
  9 10  1  0
 10 11  1  0
  8 12  2  0
  2 13  1  0
 13 14  2  0
 14 15  1  0
 15 16  1  0
 16 17  2  0
 17 18  1  0
 18 19  2  0
 19 20  1  0
 20 21  1  0
 20 22  2  0
 12  4  1  0
 22 13  1  0
 22 16  1  0
  3 23  1  0
  5 24  1  0
  6 25  1  0
  7 26  1  0
  9 27  1  0
  9 28  1  0
 10 29  1  0
 10 30  1  0
 11 31  1  0
 12 32  1  0
 14 33  1  0
 15 34  1  0
 18 35  1  0
 21 36  1  0
M  END
>  <meeko>  (1) 
{"is_sidechain": [false], "free_energy": -8.542, "intermolecular_energy": -11.039, "internal_energy": -0.663}

$$$$
ligand_5_conformer_4_docked
     RDKit          3D

 36 38  0  0  0  0  0  0  0  0999 V2000
    5.4310   44.6130   53.5890 O   0  0  0  0  0  0  0  0  0  0  0  0
    4.9350   45.5000   52.8430 C   0  0  0  0  0  0  0  0  0  0  0  0
    5.7770   46.4730   52.2020 N   0  0  0  0  0  0  0  0  0  0  0  0
    7.1880   46.5990   52.4370 C   0  0  0  0  0  0  0  0  0  0  0  0
    8.1330   46.0860   51.5310 C   0  0  0  0  0  0  0  0  0  0  0  0
    9.4990   46.2510   51.7700 C   0  0  0  0  0  0  0  0  0  0  0  0
    9.9360   46.9370   52.9050 C   0  0  0  0  0  0  0  0  0  0  0  0
    9.0060   47.4680   53.8120 C   0  0  0  0  0  0  0  0  0  0  0  0
    9.4780   48.2450   55.0130 C   0  0  0  0  0  0  0  0  0  0  0  0
   10.5910   47.5020   55.7530 C   0  0  0  0  0  0  0  0  0  0  0  0
   10.6810   47.9630   57.0740 O   0  0  0  0  0  0  0  0  0  0  0  0
    7.6340   47.3100   53.5620 C   0  0  0  0  0  0  0  0  0  0  0  0
    3.4830   45.5070   52.6180 C   0  0  0  0  0  0  0  0  0  0  0  0
    2.6090   46.5250   52.9970 C   0  0  0  0  0  0  0  0  0  0  0  0
    1.3350   46.2050   52.6710 N   0  0  0  0  0  0  0  0  0  0  0  0
    1.4060   45.0030   52.0780 C   0  0  0  0  0  0  0  0  0  0  0  0
    0.3650   44.3120   51.5540 N   0  0  0  0  0  0  0  0  0  0  0  0
    0.6190   43.1200   50.9390 C   0  0  0  0  0  0  0  0  0  0  0  0
    1.9020   42.6530   50.8320 N   0  0  0  0  0  0  0  0  0  0  0  0
    2.9590   43.3470   51.3470 C   0  0  0  0  0  0  0  0  0  0  0  0
    4.2570   42.8800   51.1780 O   0  0  0  0  0  0  0  0  0  0  0  0
    2.6910   44.5430   52.0140 C   0  0  0  0  0  0  0  0  0  0  0  0
    5.3260   47.1820   51.5810 H   0  0  0  0  0  0  0  0  0  0  0  0
    7.7950   45.5526   50.6303 H   0  0  0  0  0  0  0  0  0  0  0  0
   10.2331   45.8392   51.0618 H   0  0  0  0  0  0  0  0  0  0  0  0
   11.0133   47.0617   53.0889 H   0  0  0  0  0  0  0  0  0  0  0  0
    9.8588   49.2220   54.6807 H   0  0  0  0  0  0  0  0  0  0  0  0
    8.6286   48.3718   55.7003 H   0  0  0  0  0  0  0  0  0  0  0  0
   10.3688   46.4247   55.7577 H   0  0  0  0  0  0  0  0  0  0  0  0
   11.5478   47.6840   55.2417 H   0  0  0  0  0  0  0  0  0  0  0  0
   11.6440   48.1340   57.2390 H   0  0  0  0  0  0  0  0  0  0  0  0
    6.9005   47.7480   54.2550 H   0  0  0  0  0  0  0  0  0  0  0  0
    2.9128   47.4590   53.4924 H   0  0  0  0  0  0  0  0  0  0  0  0
    0.4800   46.7790   52.8350 H   0  0  0  0  0  0  0  0  0  0  0  0
   -0.2129   42.5303   50.5264 H   0  0  0  0  0  0  0  0  0  0  0  0
    4.4420   41.8920   51.0510 H   0  0  0  0  0  0  0  0  0  0  0  0
  1  2  2  0
  2  3  1  0
  3  4  1  0
  4  5  2  0
  5  6  1  0
  6  7  2  0
  7  8  1  0
  8  9  1  0
  9 10  1  0
 10 11  1  0
  8 12  2  0
  2 13  1  0
 13 14  2  0
 14 15  1  0
 15 16  1  0
 16 17  2  0
 17 18  1  0
 18 19  2  0
 19 20  1  0
 20 21  1  0
 20 22  2  0
 12  4  1  0
 22 13  1  0
 22 16  1  0
  3 23  1  0
  5 24  1  0
  6 25  1  0
  7 26  1  0
  9 27  1  0
  9 28  1  0
 10 29  1  0
 10 30  1  0
 11 31  1  0
 12 32  1  0
 14 33  1  0
 15 34  1  0
 18 35  1  0
 21 36  1  0
M  END
>  <meeko>  (2) 
{"is_sidechain": [false], "free_energy": -8.373, "intermolecular_energy": -10.841, "internal_energy": -0.642}

$$$$
ligand_5_conformer_4_docked
     RDKit          3D

 36 38  0  0  0  0  0  0  0  0999 V2000
    5.6430   44.4690   53.5160 O   0  0  0  0  0  0  0  0  0  0  0  0
    5.0810   45.4520   52.9620 C   0  0  0  0  0  0  0  0  0  0  0  0
    5.8310   46.6320   52.6260 N   0  0  0  0  0  0  0  0  0  0  0  0
    7.2060   46.8430   52.9870 C   0  0  0  0  0  0  0  0  0  0  0  0
    7.5630   47.3820   54.2350 C   0  0  0  0  0  0  0  0  0  0  0  0
    8.9090   47.5480   54.5720 C   0  0  0  0  0  0  0  0  0  0  0  0
    9.9090   47.1670   53.6740 C   0  0  0  0  0  0  0  0  0  0  0  0
    9.5700   46.6150   52.4300 C   0  0  0  0  0  0  0  0  0  0  0  0
   10.6490   46.1660   51.4800 C   0  0  0  0  0  0  0  0  0  0  0  0
   10.6470   44.6460   51.3150 C   0  0  0  0  0  0  0  0  0  0  0  0
   10.2380   44.3030   50.0190 O   0  0  0  0  0  0  0  0  0  0  0  0
    8.2160   46.4400   52.1000 C   0  0  0  0  0  0  0  0  0  0  0  0
    3.6510   45.3620   52.6380 C   0  0  0  0  0  0  0  0  0  0  0  0
    3.1010   45.4450   51.3600 C   0  0  0  0  0  0  0  0  0  0  0  0
    1.7520   45.3560   51.4150 N   0  0  0  0  0  0  0  0  0  0  0  0
    1.4540   45.2030   52.7140 C   0  0  0  0  0  0  0  0  0  0  0  0
    0.2120   45.0360   53.2290 N   0  0  0  0  0  0  0  0  0  0  0  0
    0.0870   44.8430   54.5760 C   0  0  0  0  0  0  0  0  0  0  0  0
    1.1970   44.7930   55.3760 N   0  0  0  0  0  0  0  0  0  0  0  0
    2.4530   44.9500   54.8630 C   0  0  0  0  0  0  0  0  0  0  0  0
    3.5680   44.8390   55.6880 O   0  0  0  0  0  0  0  0  0  0  0  0
    2.5740   45.1910   53.4950 C   0  0  0  0  0  0  0  0  0  0  0  0
    5.3300   47.4170   52.1550 H   0  0  0  0  0  0  0  0  0  0  0  0
    6.7795   47.6744   54.9496 H   0  0  0  0  0  0  0  0  0  0  0  0
    9.1817   47.9796   55.5464 H   0  0  0  0  0  0  0  0  0  0  0  0
   10.9670   47.3005   53.9438 H   0  0  0  0  0  0  0  0  0  0  0  0
   10.4794   46.6331   50.4987 H   0  0  0  0  0  0  0  0  0  0  0  0
   11.6227   46.4691   51.8924 H   0  0  0  0  0  0  0  0  0  0  0  0
   11.6618   44.2596   51.4905 H   0  0  0  0  0  0  0  0  0  0  0  0
    9.9482   44.2058   52.0415 H   0  0  0  0  0  0  0  0  0  0  0  0
   10.1330   43.3170   50.0160 H   0  0  0  0  0  0  0  0  0  0  0  0
    7.9447   45.9827   51.1371 H   0  0  0  0  0  0  0  0  0  0  0  0
    3.6832   45.5661   50.4346 H   0  0  0  0  0  0  0  0  0  0  0  0
    1.0860   45.3870   50.6120 H   0  0  0  0  0  0  0  0  0  0  0  0
   -0.9124   44.7270   55.0207 H   0  0  0  0  0  0  0  0  0  0  0  0
    4.4780   45.1560   55.3760 H   0  0  0  0  0  0  0  0  0  0  0  0
  1  2  2  0
  2  3  1  0
  3  4  1  0
  4  5  2  0
  5  6  1  0
  6  7  2  0
  7  8  1  0
  8  9  1  0
  9 10  1  0
 10 11  1  0
  8 12  2  0
  2 13  1  0
 13 14  2  0
 14 15  1  0
 15 16  1  0
 16 17  2  0
 17 18  1  0
 18 19  2  0
 19 20  1  0
 20 21  1  0
 20 22  2  0
 12  4  1  0
 22 13  1  0
 22 16  1  0
  3 23  1  0
  5 24  1  0
  6 25  1  0
  7 26  1  0
  9 27  1  0
  9 28  1  0
 10 29  1  0
 10 30  1  0
 11 31  1  0
 12 32  1  0
 14 33  1  0
 15 34  1  0
 18 35  1  0
 21 36  1  0
M  END
>  <meeko>  (3) 
{"is_sidechain": [false], "free_energy": -8.041, "intermolecular_energy": -10.325, "internal_energy": -0.731}

$$$$
ligand_5_conformer_4_docked
     RDKit          3D

 36 38  0  0  0  0  0  0  0  0999 V2000
    3.3530   46.5840   52.3180 O   0  0  0  0  0  0  0  0  0  0  0  0
    3.5840   45.7240   53.2100 C   0  0  0  0  0  0  0  0  0  0  0  0
    4.7830   44.9320   53.1720 N   0  0  0  0  0  0  0  0  0  0  0  0
    5.7320   44.9560   52.0930 C   0  0  0  0  0  0  0  0  0  0  0  0
    6.7450   45.9270   52.0280 C   0  0  0  0  0  0  0  0  0  0  0  0
    7.6740   45.9080   50.9840 C   0  0  0  0  0  0  0  0  0  0  0  0
    7.6080   44.9140   50.0050 C   0  0  0  0  0  0  0  0  0  0  0  0
    6.6110   43.9290   50.0630 C   0  0  0  0  0  0  0  0  0  0  0  0
    6.5670   42.8330   49.0300 C   0  0  0  0  0  0  0  0  0  0  0  0
    6.1680   41.4960   49.6550 C   0  0  0  0  0  0  0  0  0  0  0  0
    7.3110   40.8020   50.0760 O   0  0  0  0  0  0  0  0  0  0  0  0
    5.6870   43.9460   51.1200 C   0  0  0  0  0  0  0  0  0  0  0  0
    2.6190   45.5620   54.3070 C   0  0  0  0  0  0  0  0  0  0  0  0
    2.8990   45.7210   55.6630 C   0  0  0  0  0  0  0  0  0  0  0  0
    1.7980   45.4690   56.4090 N   0  0  0  0  0  0  0  0  0  0  0  0
    0.8290   45.1690   55.5310 C   0  0  0  0  0  0  0  0  0  0  0  0
   -0.4600   44.8840   55.8370 N   0  0  0  0  0  0  0  0  0  0  0  0
   -1.3350   44.6480   54.8140 C   0  0  0  0  0  0  0  0  0  0  0  0
   -0.9180   44.7280   53.5120 N   0  0  0  0  0  0  0  0  0  0  0  0
    0.3760   45.0260   53.1940 C   0  0  0  0  0  0  0  0  0  0  0  0
    0.7620   45.1550   51.8640 O   0  0  0  0  0  0  0  0  0  0  0  0
    1.2770   45.2220   54.2410 C   0  0  0  0  0  0  0  0  0  0  0  0
    4.9420   44.2400   53.9380 H   0  0  0  0  0  0  0  0  0  0  0  0
    6.8074   46.7058   52.8023 H   0  0  0  0  0  0  0  0  0  0  0  0
    8.4586   46.6773   50.9332 H   0  0  0  0  0  0  0  0  0  0  0  0
    8.3411   44.9036   49.1849 H   0  0  0  0  0  0  0  0  0  0  0  0
    5.8328   43.0998   48.2556 H   0  0  0  0  0  0  0  0  0  0  0  0
    7.5713   42.7264   48.5940 H   0  0  0  0  0  0  0  0  0  0  0  0
    5.5141   41.6794   50.5203 H   0  0  0  0  0  0  0  0  0  0  0  0
    5.6354   40.8923   48.9054 H   0  0  0  0  0  0  0  0  0  0  0  0
    7.7920   41.4140   50.6910 H   0  0  0  0  0  0  0  0  0  0  0  0
    4.9204   43.1599   51.1860 H   0  0  0  0  0  0  0  0  0  0  0  0
    3.8787   46.0110   56.0704 H   0  0  0  0  0  0  0  0  0  0  0  0
    1.7180   45.5130   57.4480 H   0  0  0  0  0  0  0  0  0  0  0  0
   -2.3811   44.3921   55.0379 H   0  0  0  0  0  0  0  0  0  0  0  0
    1.7080   44.9370   51.5740 H   0  0  0  0  0  0  0  0  0  0  0  0
  1  2  2  0
  2  3  1  0
  3  4  1  0
  4  5  2  0
  5  6  1  0
  6  7  2  0
  7  8  1  0
  8  9  1  0
  9 10  1  0
 10 11  1  0
  8 12  2  0
  2 13  1  0
 13 14  2  0
 14 15  1  0
 15 16  1  0
 16 17  2  0
 17 18  1  0
 18 19  2  0
 19 20  1  0
 20 21  1  0
 20 22  2  0
 12  4  1  0
 22 13  1  0
 22 16  1  0
  3 23  1  0
  5 24  1  0
  6 25  1  0
  7 26  1  0
  9 27  1  0
  9 28  1  0
 10 29  1  0
 10 30  1  0
 11 31  1  0
 12 32  1  0
 14 33  1  0
 15 34  1  0
 18 35  1  0
 21 36  1  0
M  END
>  <meeko>  (4) 
{"is_sidechain": [false], "free_energy": -7.981, "intermolecular_energy": -10.24, "internal_energy": -0.737}

$$$$
ligand_5_conformer_4_docked
     RDKit          3D

 36 38  0  0  0  0  0  0  0  0999 V2000
    4.3370   46.0460   51.2760 O   0  0  0  0  0  0  0  0  0  0  0  0
    5.1490   45.5680   52.1130 C   0  0  0  0  0  0  0  0  0  0  0  0
    4.6960   44.6880   53.1550 N   0  0  0  0  0  0  0  0  0  0  0  0
    3.3150   44.3810   53.4080 C   0  0  0  0  0  0  0  0  0  0  0  0
    2.6670   43.3200   52.7540 C   0  0  0  0  0  0  0  0  0  0  0  0
    1.3320   43.0240   53.0430 C   0  0  0  0  0  0  0  0  0  0  0  0
    0.6360   43.7750   53.9930 C   0  0  0  0  0  0  0  0  0  0  0  0
    1.2730   44.8290   54.6660 C   0  0  0  0  0  0  0  0  0  0  0  0
    0.5350   45.6110   55.7210 C   0  0  0  0  0  0  0  0  0  0  0  0
    0.9910   45.2140   57.1260 C   0  0  0  0  0  0  0  0  0  0  0  0
    1.6900   46.2720   57.7220 O   0  0  0  0  0  0  0  0  0  0  0  0
    2.6180   45.1150   54.3800 C   0  0  0  0  0  0  0  0  0  0  0  0
    6.5750   45.9040   51.9890 C   0  0  0  0  0  0  0  0  0  0  0  0
    7.3710   45.6610   50.8710 C   0  0  0  0  0  0  0  0  0  0  0  0
    8.6430   46.0620   51.0970 N   0  0  0  0  0  0  0  0  0  0  0  0
    8.6470   46.5670   52.3400 C   0  0  0  0  0  0  0  0  0  0  0  0
    9.7110   47.1220   52.9690 N   0  0  0  0  0  0  0  0  0  0  0  0
    9.5310   47.6360   54.2220 C   0  0  0  0  0  0  0  0  0  0  0  0
    8.2940   47.6130   54.8110 N   0  0  0  0  0  0  0  0  0  0  0  0
    7.2140   47.0650   54.1790 C   0  0  0  0  0  0  0  0  0  0  0  0
    5.9580   47.1030   54.7750 O   0  0  0  0  0  0  0  0  0  0  0  0
    7.4120   46.5020   52.9190 C   0  0  0  0  0  0  0  0  0  0  0  0
    5.4040   44.3030   53.8190 H   0  0  0  0  0  0  0  0  0  0  0  0
    3.2126   42.7196   52.0112 H   0  0  0  0  0  0  0  0  0  0  0  0
    0.8280   42.1973   52.5209 H   0  0  0  0  0  0  0  0  0  0  0  0
   -0.4154   43.5394   54.2145 H   0  0  0  0  0  0  0  0  0  0  0  0
    0.7265   46.6839   55.5717 H   0  0  0  0  0  0  0  0  0  0  0  0
   -0.5389   45.3915   55.6290 H   0  0  0  0  0  0  0  0  0  0  0  0
    0.1108   44.9686   57.7385 H   0  0  0  0  0  0  0  0  0  0  0  0
    1.6537   44.3388   57.0557 H   0  0  0  0  0  0  0  0  0  0  0  0
    1.3620   47.0990   57.2830 H   0  0  0  0  0  0  0  0  0  0  0  0
    3.1303   45.9226   54.9235 H   0  0  0  0  0  0  0  0  0  0  0  0
    7.0144   45.2063   49.9350 H   0  0  0  0  0  0  0  0  0  0  0  0
    9.4490   46.0030   50.4360 H   0  0  0  0  0  0  0  0  0  0  0  0
   10.3850   48.0713   54.7617 H   0  0  0  0  0  0  0  0  0  0  0  0
    5.2250   47.6960   54.4040 H   0  0  0  0  0  0  0  0  0  0  0  0
  1  2  2  0
  2  3  1  0
  3  4  1  0
  4  5  2  0
  5  6  1  0
  6  7  2  0
  7  8  1  0
  8  9  1  0
  9 10  1  0
 10 11  1  0
  8 12  2  0
  2 13  1  0
 13 14  2  0
 14 15  1  0
 15 16  1  0
 16 17  2  0
 17 18  1  0
 18 19  2  0
 19 20  1  0
 20 21  1  0
 20 22  2  0
 12  4  1  0
 22 13  1  0
 22 16  1  0
  3 23  1  0
  5 24  1  0
  6 25  1  0
  7 26  1  0
  9 27  1  0
  9 28  1  0
 10 29  1  0
 10 30  1  0
 11 31  1  0
 12 32  1  0
 14 33  1  0
 15 34  1  0
 18 35  1  0
 21 36  1  0
M  END
>  <meeko>  (5) 
{"is_sidechain": [false], "free_energy": -7.94, "intermolecular_energy": -10.119, "internal_energy": -0.806}

$$$$
