ligand_100_conformer_4_docked
     RDKit          3D

 46 48  0  0  0  0  0  0  0  0999 V2000
    8.3450   47.9400   51.1960 C   0  0  0  0  0  0  0  0  0  0  0  0
    8.9430   47.0750   52.3240 C   0  0  0  0  0  0  0  0  0  0  0  0
   10.0640   46.1950   51.7410 C   0  0  0  0  0  0  0  0  0  0  0  0
    9.5150   47.9380   53.3470 N   0  0  0  0  0  0  0  0  0  0  0  0
    9.1760   47.4520   54.6270 C   0  0  0  0  0  0  0  0  0  0  0  0
    9.6120   47.9680   55.6890 O   0  0  0  0  0  0  0  0  0  0  0  0
    8.3050   46.2590   54.5850 C   0  0  0  0  0  0  0  0  0  0  0  0
    7.9010   46.1750   53.0940 C   0  0  1  0  0  0  0  0  0  0  0  0
    6.4560   46.6140   52.9170 C   0  0  0  0  0  0  0  0  0  0  0  0
    6.2030   47.8460   52.8120 O   0  0  0  0  0  0  0  0  0  0  0  0
    5.3760   45.6570   52.8370 N   0  0  0  0  0  0  0  0  0  0  0  0
    4.7780   45.0220   54.0040 C   0  0  0  0  0  0  0  0  0  0  0  0
    3.9200   43.8870   53.4670 C   0  0  0  0  0  0  0  0  0  0  0  0
    3.6540   44.2300   52.0070 C   0  0  0  0  0  0  0  0  0  0  0  0
    4.7950   45.1770   51.5770 C   0  0  1  0  0  0  0  0  0  0  0  0
    4.2080   46.3850   50.8050 C   0  0  0  0  0  0  0  0  0  0  0  0
    5.8390   44.3930   50.7640 C   0  0  0  0  0  0  0  0  0  0  0  0
    6.9300   45.0360   50.1380 C   0  0  0  0  0  0  0  0  0  0  0  0
    7.8450   44.3070   49.3700 C   0  0  0  0  0  0  0  0  0  0  0  0
    7.6770   42.9340   49.1950 C   0  0  0  0  0  0  0  0  0  0  0  0
    6.5850   42.2880   49.7730 C   0  0  0  0  0  0  0  0  0  0  0  0
    5.6670   43.0100   50.5390 C   0  0  0  0  0  0  0  0  0  0  0  0
    7.7714   48.7696   51.6350 H   0  0  0  0  0  0  0  0  0  0  0  0
    9.1573   48.3444   50.5742 H   0  0  0  0  0  0  0  0  0  0  0  0
    7.6797   47.3229   50.5742 H   0  0  0  0  0  0  0  0  0  0  0  0
   10.6398   45.7430   52.5621 H   0  0  0  0  0  0  0  0  0  0  0  0
    9.6219   45.4002   51.1222 H   0  0  0  0  0  0  0  0  0  0  0  0
   10.7311   46.8131   51.1222 H   0  0  0  0  0  0  0  0  0  0  0  0
   10.2150   48.6940   53.1700 H   0  0  0  0  0  0  0  0  0  0  0  0
    8.8533   45.3580   54.8973 H   0  0  0  0  0  0  0  0  0  0  0  0
    7.4427   46.3279   55.2644 H   0  0  0  0  0  0  0  0  0  0  0  0
    7.9331   45.1518   52.6916 H   0  0  0  0  0  0  0  0  0  0  0  0
    5.5610   44.6283   54.6687 H   0  0  0  0  0  0  0  0  0  0  0  0
    4.1819   45.7360   54.5913 H   0  0  0  0  0  0  0  0  0  0  0  0
    4.4566   42.9300   53.5450 H   0  0  0  0  0  0  0  0  0  0  0  0
    2.9852   43.7789   54.0365 H   0  0  0  0  0  0  0  0  0  0  0  0
    3.6626   43.3177   51.3925 H   0  0  0  0  0  0  0  0  0  0  0  0
    2.6688   44.7017   51.8772 H   0  0  0  0  0  0  0  0  0  0  0  0
    3.8432   47.1358   51.5214 H   0  0  0  0  0  0  0  0  0  0  0  0
    4.9898   46.8310   50.1727 H   0  0  0  0  0  0  0  0  0  0  0  0
    3.3742   46.0460   50.1727 H   0  0  0  0  0  0  0  0  0  0  0  0
    7.0618   46.1217   50.2555 H   0  0  0  0  0  0  0  0  0  0  0  0
    8.6994   44.8188   48.9030 H   0  0  0  0  0  0  0  0  0  0  0  0
    8.4050   42.3612   48.6017 H   0  0  0  0  0  0  0  0  0  0  0  0
    6.4461   41.2068   49.6254 H   0  0  0  0  0  0  0  0  0  0  0  0
    4.7980   42.4938   50.9730 H   0  0  0  0  0  0  0  0  0  0  0  0
  1  2  1  0
  2  3  1  0
  2  4  1  0
  4  5  1  0
  5  6  2  0
  5  7  1  0
  7  8  1  0
  8  9  1  0
  9 10  2  0
  9 11  1  0
 11 12  1  0
 12 13  1  0
 13 14  1  0
 14 15  1  0
 15 16  1  6
 15 17  1  0
 17 18  2  0
 18 19  1  0
 19 20  2  0
 20 21  1  0
 21 22  2  0
  8  2  1  0
 15 11  1  0
 22 17  1  0
  1 23  1  0
  1 24  1  0
  1 25  1  0
  3 26  1  0
  3 27  1  0
  3 28  1  0
  4 29  1  0
  7 30  1  0
  7 31  1  0
  8 32  1  6
 12 33  1  0
 12 34  1  0
 13 35  1  0
 13 36  1  0
 14 37  1  0
 14 38  1  0
 16 39  1  0
 16 40  1  0
 16 41  1  0
 18 42  1  0
 19 43  1  0
 20 44  1  0
 21 45  1  0
 22 46  1  0
M  END
>  <meeko>  (1) 
{"is_sidechain": [false], "free_energy": -8.661, "intermolecular_energy": -10.18, "internal_energy": -0.113}

$$$$
ligand_100_conformer_4_docked
     RDKit          3D

 46 48  0  0  0  0  0  0  0  0999 V2000
    1.7450   44.5320   51.4280 C   0  0  0  0  0  0  0  0  0  0  0  0
    2.4240   43.2350   51.9130 C   0  0  0  0  0  0  0  0  0  0  0  0
    1.5510   42.5910   53.0060 C   0  0  0  0  0  0  0  0  0  0  0  0
    2.5400   42.3020   50.8020 N   0  0  0  0  0  0  0  0  0  0  0  0
    3.8110   41.6930   50.8190 C   0  0  0  0  0  0  0  0  0  0  0  0
    4.1430   40.7840   50.0140 O   0  0  0  0  0  0  0  0  0  0  0  0
    4.6840   42.1950   51.9010 C   0  0  0  0  0  0  0  0  0  0  0  0
    3.8990   43.4150   52.4420 C   0  0  1  0  0  0  0  0  0  0  0  0
    4.5630   44.7060   51.9920 C   0  0  0  0  0  0  0  0  0  0  0  0
    5.0840   44.7550   50.8440 O   0  0  0  0  0  0  0  0  0  0  0  0
    4.5860   45.8820   52.8340 N   0  0  0  0  0  0  0  0  0  0  0  0
    3.6220   46.9690   52.7220 C   0  0  0  0  0  0  0  0  0  0  0  0
    4.1830   48.1090   53.5560 C   0  0  0  0  0  0  0  0  0  0  0  0
    5.1750   47.4670   54.5160 C   0  0  0  0  0  0  0  0  0  0  0  0
    5.6070   46.1390   53.8570 C   0  0  1  0  0  0  0  0  0  0  0  0
    5.5650   44.9980   54.9040 C   0  0  0  0  0  0  0  0  0  0  0  0
    6.9910   46.3100   53.2090 C   0  0  0  0  0  0  0  0  0  0  0  0
    8.1840   46.0750   53.9280 C   0  0  0  0  0  0  0  0  0  0  0  0
    9.4320   46.2760   53.3290 C   0  0  0  0  0  0  0  0  0  0  0  0
    9.5130   46.7370   52.0140 C   0  0  0  0  0  0  0  0  0  0  0  0
    8.3470   47.0110   51.3010 C   0  0  0  0  0  0  0  0  0  0  0  0
    7.0980   46.8140   51.8940 C   0  0  0  0  0  0  0  0  0  0  0  0
    1.4323   45.1293   52.2972 H   0  0  0  0  0  0  0  0  0  0  0  0
    2.4549   45.1125   50.8205 H   0  0  0  0  0  0  0  0  0  0  0  0
    0.8635   44.2793   50.8205 H   0  0  0  0  0  0  0  0  0  0  0  0
    1.9355   42.8746   53.9968 H   0  0  0  0  0  0  0  0  0  0  0  0
    0.5138   42.9419   52.9010 H   0  0  0  0  0  0  0  0  0  0  0  0
    1.5801   41.4964   52.9010 H   0  0  0  0  0  0  0  0  0  0  0  0
    1.7480   41.9950   50.1930 H   0  0  0  0  0  0  0  0  0  0  0  0
    4.8213   41.4343   52.6836 H   0  0  0  0  0  0  0  0  0  0  0  0
    5.6980   42.4486   51.5582 H   0  0  0  0  0  0  0  0  0  0  0  0
    3.8892   43.4740   53.5404 H   0  0  0  0  0  0  0  0  0  0  0  0
    3.5151   47.2793   51.6721 H   0  0  0  0  0  0  0  0  0  0  0  0
    2.6253   46.6634   53.0731 H   0  0  0  0  0  0  0  0  0  0  0  0
    4.6916   48.8414   52.9119 H   0  0  0  0  0  0  0  0  0  0  0  0
    3.3889   48.6484   54.0931 H   0  0  0  0  0  0  0  0  0  0  0  0
    6.0461   48.1230   54.6606 H   0  0  0  0  0  0  0  0  0  0  0  0
    4.7259   47.2981   55.5058 H   0  0  0  0  0  0  0  0  0  0  0  0
    5.5808   45.4284   55.9162 H   0  0  0  0  0  0  0  0  0  0  0  0
    4.6446   44.4107   54.7696 H   0  0  0  0  0  0  0  0  0  0  0  0
    6.4397   44.3447   54.7696 H   0  0  0  0  0  0  0  0  0  0  0  0
    8.1310   45.7299   54.9711 H   0  0  0  0  0  0  0  0  0  0  0  0
   10.3520   46.0702   53.8958 H   0  0  0  0  0  0  0  0  0  0  0  0
   10.4953   46.8838   51.5412 H   0  0  0  0  0  0  0  0  0  0  0  0
    8.4108   47.3836   50.2680 H   0  0  0  0  0  0  0  0  0  0  0  0
    6.1852   47.0546   51.3292 H   0  0  0  0  0  0  0  0  0  0  0  0
  1  2  1  0
  2  3  1  0
  2  4  1  0
  4  5  1  0
  5  6  2  0
  5  7  1  0
  7  8  1  0
  8  9  1  0
  9 10  2  0
  9 11  1  0
 11 12  1  0
 12 13  1  0
 13 14  1  0
 14 15  1  0
 15 16  1  1
 15 17  1  0
 17 18  2  0
 18 19  1  0
 19 20  2  0
 20 21  1  0
 21 22  2  0
  8  2  1  0
 15 11  1  0
 22 17  1  0
  1 23  1  0
  1 24  1  0
  1 25  1  0
  3 26  1  0
  3 27  1  0
  3 28  1  0
  4 29  1  0
  7 30  1  0
  7 31  1  0
  8 32  1  1
 12 33  1  0
 12 34  1  0
 13 35  1  0
 13 36  1  0
 14 37  1  0
 14 38  1  0
 16 39  1  0
 16 40  1  0
 16 41  1  0
 18 42  1  0
 19 43  1  0
 20 44  1  0
 21 45  1  0
 22 46  1  0
M  END
>  <meeko>  (2) 
{"is_sidechain": [false], "free_energy": -8.42, "intermolecular_energy": -9.87, "internal_energy": -0.14}

$$$$
ligand_100_conformer_4_docked
     RDKit          3D

 46 48  0  0  0  0  0  0  0  0999 V2000
    1.6400   46.1960   53.1480 C   0  0  0  0  0  0  0  0  0  0  0  0
    1.4580   44.8740   53.9230 C   0  0  0  0  0  0  0  0  0  0  0  0
    2.0340   45.0420   55.3410 C   0  0  0  0  0  0  0  0  0  0  0  0
    0.0400   44.5670   54.0310 N   0  0  0  0  0  0  0  0  0  0  0  0
   -0.1720   43.1940   53.7860 C   0  0  0  0  0  0  0  0  0  0  0  0
   -1.3010   42.6490   53.8970 O   0  0  0  0  0  0  0  0  0  0  0  0
    1.0660   42.4670   53.4380 C   0  0  0  0  0  0  0  0  0  0  0  0
    2.0930   43.6070   53.2330 C   0  0  1  0  0  0  0  0  0  0  0  0
    2.3830   43.7900   51.7520 C   0  0  0  0  0  0  0  0  0  0  0  0
    1.4210   44.0190   50.9670 O   0  0  0  0  0  0  0  0  0  0  0  0
    3.7300   43.7370   51.2290 N   0  0  0  0  0  0  0  0  0  0  0  0
    4.3270   42.5320   50.6690 C   0  0  0  0  0  0  0  0  0  0  0  0
    5.8120   42.8280   50.5330 C   0  0  0  0  0  0  0  0  0  0  0  0
    5.9310   44.3470   50.5390 C   0  0  0  0  0  0  0  0  0  0  0  0
    4.6640   44.8700   51.2510 C   0  0  1  0  0  0  0  0  0  0  0  0
    4.0530   46.0370   50.4380 C   0  0  0  0  0  0  0  0  0  0  0  0
    5.0080   45.2590   52.6980 C   0  0  0  0  0  0  0  0  0  0  0  0
    5.0890   46.6090   53.1070 C   0  0  0  0  0  0  0  0  0  0  0  0
    5.4440   46.9390   54.4190 C   0  0  0  0  0  0  0  0  0  0  0  0
    5.7460   45.9350   55.3380 C   0  0  0  0  0  0  0  0  0  0  0  0
    5.7100   44.5980   54.9440 C   0  0  0  0  0  0  0  0  0  0  0  0
    5.3580   44.2620   53.6340 C   0  0  0  0  0  0  0  0  0  0  0  0
    1.7543   47.0261   53.8607 H   0  0  0  0  0  0  0  0  0  0  0  0
    2.5375   46.1296   52.5154 H   0  0  0  0  0  0  0  0  0  0  0  0
    0.7580   46.3746   52.5154 H   0  0  0  0  0  0  0  0  0  0  0  0
    1.2543   44.8146   56.0828 H   0  0  0  0  0  0  0  0  0  0  0  0
    2.8811   44.3535   55.4766 H   0  0  0  0  0  0  0  0  0  0  0  0
    2.3781   46.0779   55.4766 H   0  0  0  0  0  0  0  0  0  0  0  0
   -0.6880   45.2170   54.4070 H   0  0  0  0  0  0  0  0  0  0  0  0
    1.3750   41.7986   54.2552 H   0  0  0  0  0  0  0  0  0  0  0  0
    0.9551   41.8195   52.5557 H   0  0  0  0  0  0  0  0  0  0  0  0
    3.0734   43.3968   53.6854 H   0  0  0  0  0  0  0  0  0  0  0  0
    4.1673   41.6771   51.3426 H   0  0  0  0  0  0  0  0  0  0  0  0
    3.8766   42.2706   49.7001 H   0  0  0  0  0  0  0  0  0  0  0  0
    6.3683   42.3962   51.3781 H   0  0  0  0  0  0  0  0  0  0  0  0
    6.2309   42.3912   49.6145 H   0  0  0  0  0  0  0  0  0  0  0  0
    6.8330   44.6576   51.0866 H   0  0  0  0  0  0  0  0  0  0  0  0
    6.0148   44.7488   49.5184 H   0  0  0  0  0  0  0  0  0  0  0  0
    3.6556   46.7960   51.1280 H   0  0  0  0  0  0  0  0  0  0  0  0
    4.8303   46.4887   49.8042 H   0  0  0  0  0  0  0  0  0  0  0  0
    3.2389   45.6556   49.8042 H   0  0  0  0  0  0  0  0  0  0  0  0
    4.8703   47.4098   52.3852 H   0  0  0  0  0  0  0  0  0  0  0  0
    5.4851   47.9943   54.7268 H   0  0  0  0  0  0  0  0  0  0  0  0
    6.0123   46.1973   56.3725 H   0  0  0  0  0  0  0  0  0  0  0  0
    5.9592   43.8061   55.6657 H   0  0  0  0  0  0  0  0  0  0  0  0
    5.3536   43.2055   53.3278 H   0  0  0  0  0  0  0  0  0  0  0  0
  1  2  1  0
  2  3  1  0
  2  4  1  0
  4  5  1  0
  5  6  2  0
  5  7  1  0
  7  8  1  0
  8  9  1  0
  9 10  2  0
  9 11  1  0
 11 12  1  0
 12 13  1  0
 13 14  1  0
 14 15  1  0
 15 16  1  6
 15 17  1  0
 17 18  2  0
 18 19  1  0
 19 20  2  0
 20 21  1  0
 21 22  2  0
  8  2  1  0
 15 11  1  0
 22 17  1  0
  1 23  1  0
  1 24  1  0
  1 25  1  0
  3 26  1  0
  3 27  1  0
  3 28  1  0
  4 29  1  0
  7 30  1  0
  7 31  1  0
  8 32  1  1
 12 33  1  0
 12 34  1  0
 13 35  1  0
 13 36  1  0
 14 37  1  0
 14 38  1  0
 16 39  1  0
 16 40  1  0
 16 41  1  0
 18 42  1  0
 19 43  1  0
 20 44  1  0
 21 45  1  0
 22 46  1  0
M  END
>  <meeko>  (3) 
{"is_sidechain": [false], "free_energy": -8.406, "intermolecular_energy": -8.802, "internal_energy": -1.192}

$$$$
ligand_100_conformer_4_docked
     RDKit          3D

 46 48  0  0  0  0  0  0  0  0999 V2000
    2.2690   42.7290   52.5940 C   0  0  0  0  0  0  0  0  0  0  0  0
    1.9110   44.1330   53.1220 C   0  0  0  0  0  0  0  0  0  0  0  0
    0.7610   44.7090   52.2740 C   0  0  0  0  0  0  0  0  0  0  0  0
    1.4630   44.0330   54.5030 N   0  0  0  0  0  0  0  0  0  0  0  0
    2.0300   45.0750   55.2660 C   0  0  0  0  0  0  0  0  0  0  0  0
    1.7420   45.2670   56.4760 O   0  0  0  0  0  0  0  0  0  0  0  0
    2.9490   45.9320   54.4890 C   0  0  0  0  0  0  0  0  0  0  0  0
    3.1110   45.1540   53.1620 C   0  0  1  0  0  0  0  0  0  0  0  0
    4.4820   44.4980   53.1030 C   0  0  0  0  0  0  0  0  0  0  0  0
    5.0390   44.1560   54.1830 O   0  0  0  0  0  0  0  0  0  0  0  0
    5.1450   44.2340   51.8460 N   0  0  0  0  0  0  0  0  0  0  0  0
    5.3750   42.8920   51.3260 C   0  0  0  0  0  0  0  0  0  0  0  0
    6.3490   43.0560   50.1710 C   0  0  0  0  0  0  0  0  0  0  0  0
    6.2450   44.5160   49.7480 C   0  0  0  0  0  0  0  0  0  0  0  0
    5.7050   45.2770   50.9780 C   0  0  1  0  0  0  0  0  0  0  0  0
    4.5660   46.2310   50.5430 C   0  0  0  0  0  0  0  0  0  0  0  0
    6.8620   46.0030   51.6840 C   0  0  0  0  0  0  0  0  0  0  0  0
    6.6360   46.9070   52.7460 C   0  0  0  0  0  0  0  0  0  0  0  0
    7.7010   47.5860   53.3460 C   0  0  0  0  0  0  0  0  0  0  0  0
    9.0040   47.3960   52.8860 C   0  0  0  0  0  0  0  0  0  0  0  0
    9.2440   46.5380   51.8130 C   0  0  0  0  0  0  0  0  0  0  0  0
    8.1840   45.8580   51.2080 C   0  0  0  0  0  0  0  0  0  0  0  0
    2.4419   42.0511   53.4429 H   0  0  0  0  0  0  0  0  0  0  0  0
    1.4400   42.3453   51.9813 H   0  0  0  0  0  0  0  0  0  0  0  0
    3.1806   42.7891   51.9813 H   0  0  0  0  0  0  0  0  0  0  0  0
   -0.0231   45.1017   52.9380 H   0  0  0  0  0  0  0  0  0  0  0  0
    1.1447   45.5213   51.6392 H   0  0  0  0  0  0  0  0  0  0  0  0
    0.3403   43.9152   51.6392 H   0  0  0  0  0  0  0  0  0  0  0  0
    0.7010   43.4020   54.8420 H   0  0  0  0  0  0  0  0  0  0  0  0
    2.5103   46.9254   54.3139 H   0  0  0  0  0  0  0  0  0  0  0  0
    3.9043   46.1196   55.0011 H   0  0  0  0  0  0  0  0  0  0  0  0
    3.0715   45.7997   52.2723 H   0  0  0  0  0  0  0  0  0  0  0  0
    5.8098   42.2487   52.1052 H   0  0  0  0  0  0  0  0  0  0  0  0
    4.4373   42.4181   51.0003 H   0  0  0  0  0  0  0  0  0  0  0  0
    7.3734   42.8233   50.4972 H   0  0  0  0  0  0  0  0  0  0  0  0
    6.1121   42.3748   49.3404 H   0  0  0  0  0  0  0  0  0  0  0  0
    7.2345   44.9029   49.4631 H   0  0  0  0  0  0  0  0  0  0  0  0
    5.5845   44.6374   48.8768 H   0  0  0  0  0  0  0  0  0  0  0  0
    4.0728   46.6441   51.4353 H   0  0  0  0  0  0  0  0  0  0  0  0
    4.9846   47.0519   49.9423 H   0  0  0  0  0  0  0  0  0  0  0  0
    3.8312   45.6749   49.9423 H   0  0  0  0  0  0  0  0  0  0  0  0
    5.6105   47.0787   53.1050 H   0  0  0  0  0  0  0  0  0  0  0  0
    7.5105   48.2726   54.1840 H   0  0  0  0  0  0  0  0  0  0  0  0
    9.8409   47.9220   53.3687 H   0  0  0  0  0  0  0  0  0  0  0  0
   10.2699   46.3964   51.4423 H   0  0  0  0  0  0  0  0  0  0  0  0
    8.3818   45.2003   50.3487 H   0  0  0  0  0  0  0  0  0  0  0  0
  1  2  1  0
  2  3  1  0
  2  4  1  0
  4  5  1  0
  5  6  2  0
  5  7  1  0
  7  8  1  0
  8  9  1  0
  9 10  2  0
  9 11  1  0
 11 12  1  0
 12 13  1  0
 13 14  1  0
 14 15  1  0
 15 16  1  6
 15 17  1  0
 17 18  2  0
 18 19  1  0
 19 20  2  0
 20 21  1  0
 21 22  2  0
  8  2  1  0
 15 11  1  0
 22 17  1  0
  1 23  1  0
  1 24  1  0
  1 25  1  0
  3 26  1  0
  3 27  1  0
  3 28  1  0
  4 29  1  0
  7 30  1  0
  7 31  1  0
  8 32  1  6
 12 33  1  0
 12 34  1  0
 13 35  1  0
 13 36  1  0
 14 37  1  0
 14 38  1  0
 16 39  1  0
 16 40  1  0
 16 41  1  0
 18 42  1  0
 19 43  1  0
 20 44  1  0
 21 45  1  0
 22 46  1  0
M  END
>  <meeko>  (4) 
{"is_sidechain": [false], "free_energy": -8.137, "intermolecular_energy": -9.324, "internal_energy": -0.352}

$$$$
ligand_100_conformer_4_docked
     RDKit          3D

 46 48  0  0  0  0  0  0  0  0999 V2000
    3.9140   46.7310   54.9480 C   0  0  0  0  0  0  0  0  0  0  0  0
    2.9340   45.6110   54.5420 C   0  0  0  0  0  0  0  0  0  0  0  0
    2.0080   45.3010   55.7330 C   0  0  0  0  0  0  0  0  0  0  0  0
    2.1180   46.0610   53.4240 N   0  0  0  0  0  0  0  0  0  0  0  0
    1.9980   45.0260   52.4730 C   0  0  0  0  0  0  0  0  0  0  0  0
    1.2770   45.1250   51.4460 O   0  0  0  0  0  0  0  0  0  0  0  0
    2.7620   43.8130   52.8330 C   0  0  0  0  0  0  0  0  0  0  0  0
    3.6170   44.2840   54.0340 C   0  0  1  0  0  0  0  0  0  0  0  0
    5.0660   44.4590   53.6080 C   0  0  0  0  0  0  0  0  0  0  0  0
    5.9560   44.5400   54.4990 O   0  0  0  0  0  0  0  0  0  0  0  0
    5.4490   44.5050   52.2150 N   0  0  0  0  0  0  0  0  0  0  0  0
    5.4520   43.3370   51.3430 C   0  0  0  0  0  0  0  0  0  0  0  0
    6.1970   43.7580   50.0870 C   0  0  0  0  0  0  0  0  0  0  0  0
    6.1460   45.2800   50.0690 C   0  0  0  0  0  0  0  0  0  0  0  0
    5.9250   45.7160   51.5340 C   0  0  1  0  0  0  0  0  0  0  0  0
    4.8140   46.7940   51.5960 C   0  0  0  0  0  0  0  0  0  0  0  0
    7.2570   46.1880   52.1390 C   0  0  0  0  0  0  0  0  0  0  0  0
    7.3020   47.0770   53.2370 C   0  0  0  0  0  0  0  0  0  0  0  0
    8.5260   47.5240   53.7440 C   0  0  0  0  0  0  0  0  0  0  0  0
    9.7230   47.1140   53.1560 C   0  0  0  0  0  0  0  0  0  0  0  0
    9.6980   46.2670   52.0490 C   0  0  0  0  0  0  0  0  0  0  0  0
    8.4780   45.8190   51.5350 C   0  0  0  0  0  0  0  0  0  0  0  0
    3.9672   46.7918   56.0450 H   0  0  0  0  0  0  0  0  0  0  0  0
    4.9127   46.5085   54.5442 H   0  0  0  0  0  0  0  0  0  0  0  0
    3.5609   47.6914   54.5442 H   0  0  0  0  0  0  0  0  0  0  0  0
    2.5480   45.4818   56.6741 H   0  0  0  0  0  0  0  0  0  0  0  0
    1.1222   45.9516   55.6878 H   0  0  0  0  0  0  0  0  0  0  0  0
    1.6924   44.2482   55.6878 H   0  0  0  0  0  0  0  0  0  0  0  0
    1.5590   46.9440   53.4070 H   0  0  0  0  0  0  0  0  0  0  0  0
    2.0885   42.9935   53.1243 H   0  0  0  0  0  0  0  0  0  0  0  0
    3.3634   43.4167   52.0016 H   0  0  0  0  0  0  0  0  0  0  0  0
    3.6536   43.5536   54.8557 H   0  0  0  0  0  0  0  0  0  0  0  0
    5.9679   42.4967   51.8305 H   0  0  0  0  0  0  0  0  0  0  0  0
    4.4299   43.0013   51.1134 H   0  0  0  0  0  0  0  0  0  0  0  0
    7.2397   43.4095   50.1244 H   0  0  0  0  0  0  0  0  0  0  0  0
    5.7448   43.3256   49.1823 H   0  0  0  0  0  0  0  0  0  0  0  0
    7.0927   45.6896   49.6870 H   0  0  0  0  0  0  0  0  0  0  0  0
    5.3431   45.6485   49.4135 H   0  0  0  0  0  0  0  0  0  0  0  0
    4.5808   47.0202   52.6469 H   0  0  0  0  0  0  0  0  0  0  0  0
    5.1616   47.7082   51.0925 H   0  0  0  0  0  0  0  0  0  0  0  0
    3.9107   46.4190   51.0925 H   0  0  0  0  0  0  0  0  0  0  0  0
    6.3641   47.4208   53.6975 H   0  0  0  0  0  0  0  0  0  0  0  0
    8.5453   48.2018   54.6101 H   0  0  0  0  0  0  0  0  0  0  0  0
   10.6843   47.4583   53.5650 H   0  0  0  0  0  0  0  0  0  0  0  0
   10.6408   45.9505   51.5789 H   0  0  0  0  0  0  0  0  0  0  0  0
    8.4693   45.1696   50.6472 H   0  0  0  0  0  0  0  0  0  0  0  0
  1  2  1  0
  2  3  1  0
  2  4  1  0
  4  5  1  0
  5  6  2  0
  5  7  1  0
  7  8  1  0
  8  9  1  0
  9 10  2  0
  9 11  1  0
 11 12  1  0
 12 13  1  0
 13 14  1  0
 14 15  1  0
 15 16  1  6
 15 17  1  0
 17 18  2  0
 18 19  1  0
 19 20  2  0
 20 21  1  0
 21 22  2  0
  8  2  1  0
 15 11  1  0
 22 17  1  0
  1 23  1  0
  1 24  1  0
  1 25  1  0
  3 26  1  0
  3 27  1  0
  3 28  1  0
  4 29  1  0
  7 30  1  0
  7 31  1  0
  8 32  1  1
 12 33  1  0
 12 34  1  0
 13 35  1  0
 13 36  1  0
 14 37  1  0
 14 38  1  0
 16 39  1  0
 16 40  1  0
 16 41  1  0
 18 42  1  0
 19 43  1  0
 20 44  1  0
 21 45  1  0
 22 46  1  0
M  END
>  <meeko>  (5) 
{"is_sidechain": [false], "free_energy": -8.11, "intermolecular_energy": -9.662, "internal_energy": 0.017}

$$$$
