ligand_71_conformer_2_docked
     RDKit          3D

 39 41  0  0  0  0  0  0  0  0999 V2000
    7.5260   45.9330   50.6790 C   0  0  0  0  0  0  0  0  0  0  0  0
    8.2000   46.3780   51.9510 C   0  0  0  0  0  0  0  0  0  0  0  0
    9.6050   46.3910   52.0030 C   0  0  0  0  0  0  0  0  0  0  0  0
   10.2700   46.7740   53.1680 C   0  0  0  0  0  0  0  0  0  0  0  0
    9.5440   47.1580   54.2940 C   0  0  0  0  0  0  0  0  0  0  0  0
    8.1480   47.1660   54.2580 C   0  0  0  0  0  0  0  0  0  0  0  0
    7.4570   46.7860   53.0920 C   0  0  0  0  0  0  0  0  0  0  0  0
    5.9750   46.8420   53.0910 C   0  0  0  0  0  0  0  0  0  0  0  0
    5.3930   47.9150   53.4080 O   0  0  0  0  0  0  0  0  0  0  0  0
    5.2060   45.6780   52.7420 N   0  0  0  0  0  0  0  0  0  0  0  0
    3.7740   45.6280   52.7930 C   0  0  0  0  0  0  0  0  0  0  0  0
    3.0650   45.3240   53.9010 N   0  0  0  0  0  0  0  0  0  0  0  0
    1.7220   45.3590   53.6780 C   0  0  0  0  0  0  0  0  0  0  0  0
    0.7420   45.0630   54.7560 C   0  0  0  0  0  0  0  0  0  0  0  0
    0.9050   45.6410   56.0300 C   0  0  0  0  0  0  0  0  0  0  0  0
   -0.0130   45.3860   57.0510 C   0  0  0  0  0  0  0  0  0  0  0  0
   -1.1060   44.5560   56.8160 C   0  0  0  0  0  0  0  0  0  0  0  0
   -1.2880   43.9750   55.5610 C   0  0  0  0  0  0  0  0  0  0  0  0
   -0.3690   44.2170   54.5190 C   0  0  0  0  0  0  0  0  0  0  0  0
   -0.5220   43.6230   53.2540 O   0  0  0  0  0  0  0  0  0  0  0  0
   -0.0340   42.3360   52.8850 C   0  0  0  0  0  0  0  0  0  0  0  0
    0.8870   41.9180   53.8250 F   0  0  0  0  0  0  0  0  0  0  0  0
    0.5830   42.4010   51.6500 F   0  0  0  0  0  0  0  0  0  0  0  0
    1.3640   45.6930   52.3680 C   0  0  0  0  0  0  0  0  0  0  0  0
    2.7740   45.9520   51.4860 S   0  0  0  0  0  0  0  0  0  0  0  0
    6.6313   45.3423   50.9254 H   0  0  0  0  0  0  0  0  0  0  0  0
    7.2324   46.8154   50.0915 H   0  0  0  0  0  0  0  0  0  0  0  0
    8.2222   45.3164   50.0915 H   0  0  0  0  0  0  0  0  0  0  0  0
   10.1855   46.0963   51.1164 H   0  0  0  0  0  0  0  0  0  0  0  0
   11.3696   46.7729   53.1980 H   0  0  0  0  0  0  0  0  0  0  0  0
   10.0714   47.4552   55.2124 H   0  0  0  0  0  0  0  0  0  0  0  0
    7.5824   47.4725   55.1503 H   0  0  0  0  0  0  0  0  0  0  0  0
    5.7050   44.8290   52.3940 H   0  0  0  0  0  0  0  0  0  0  0  0
    1.7643   46.3001   56.2228 H   0  0  0  0  0  0  0  0  0  0  0  0
    0.1276   45.8415   58.0423 H   0  0  0  0  0  0  0  0  0  0  0  0
   -1.8278   44.3580   57.6221 H   0  0  0  0  0  0  0  0  0  0  0  0
   -2.1555   43.3227   55.3826 H   0  0  0  0  0  0  0  0  0  0  0  0
   -0.8755   41.6293   52.8346 H   0  0  0  0  0  0  0  0  0  0  0  0
    0.3375   45.7727   51.9807 H   0  0  0  0  0  0  0  0  0  0  0  0
  1  2  1  0
  2  3  2  0
  3  4  1  0
  4  5  2  0
  5  6  1  0
  6  7  2  0
  7  8  1  0
  8  9  2  0
  8 10  1  0
 10 11  1  0
 11 12  2  0
 12 13  1  0
 13 14  1  0
 14 15  2  0
 15 16  1  0
 16 17  2  0
 17 18  1  0
 18 19  2  0
 19 20  1  0
 20 21  1  0
 21 22  1  0
 21 23  1  0
 13 24  2  0
 24 25  1  0
  7  2  1  0
 25 11  1  0
 19 14  1  0
  1 26  1  0
  1 27  1  0
  1 28  1  0
  3 29  1  0
  4 30  1  0
  5 31  1  0
  6 32  1  0
 10 33  1  0
 15 34  1  0
 16 35  1  0
 17 36  1  0
 18 37  1  0
 21 38  1  0
 24 39  1  0
M  END
>  <meeko>  (1) 
{"is_sidechain": [false], "free_energy": -8.97, "intermolecular_energy": -11.592, "internal_energy": -0.237}

$$$$
ligand_71_conformer_2_docked
     RDKit          3D

 39 41  0  0  0  0  0  0  0  0999 V2000
    6.5040   46.7440   54.7370 C   0  0  0  0  0  0  0  0  0  0  0  0
    7.6040   46.6620   53.7110 C   0  0  0  0  0  0  0  0  0  0  0  0
    8.8970   47.0850   54.0710 C   0  0  0  0  0  0  0  0  0  0  0  0
    9.9400   47.0490   53.1460 C   0  0  0  0  0  0  0  0  0  0  0  0
    9.7120   46.5820   51.8520 C   0  0  0  0  0  0  0  0  0  0  0  0
    8.4400   46.1440   51.4800 C   0  0  0  0  0  0  0  0  0  0  0  0
    7.3740   46.1690   52.3980 C   0  0  0  0  0  0  0  0  0  0  0  0
    6.0480   45.6630   51.9670 C   0  0  0  0  0  0  0  0  0  0  0  0
    5.3220   46.3750   51.2220 O   0  0  0  0  0  0  0  0  0  0  0  0
    5.5870   44.3720   52.4060 N   0  0  0  0  0  0  0  0  0  0  0  0
    4.2900   43.8460   52.0990 C   0  0  0  0  0  0  0  0  0  0  0  0
    3.1300   44.3980   52.5140 N   0  0  0  0  0  0  0  0  0  0  0  0
    2.0440   43.7060   52.0730 C   0  0  0  0  0  0  0  0  0  0  0  0
    0.6570   44.1330   52.4030 C   0  0  0  0  0  0  0  0  0  0  0  0
   -0.2330   44.4840   51.3690 C   0  0  0  0  0  0  0  0  0  0  0  0
   -1.5420   44.8730   51.6580 C   0  0  0  0  0  0  0  0  0  0  0  0
   -1.9830   44.9150   52.9790 C   0  0  0  0  0  0  0  0  0  0  0  0
   -1.1190   44.5680   54.0170 C   0  0  0  0  0  0  0  0  0  0  0  0
    0.2090   44.1770   53.7450 C   0  0  0  0  0  0  0  0  0  0  0  0
    1.1010   43.8450   54.7790 O   0  0  0  0  0  0  0  0  0  0  0  0
    1.6930   44.7740   55.6850 C   0  0  0  0  0  0  0  0  0  0  0  0
    0.8570   44.9350   56.7720 F   0  0  0  0  0  0  0  0  0  0  0  0
    1.8610   45.9970   55.0630 F   0  0  0  0  0  0  0  0  0  0  0  0
    2.3510   42.5830   51.2980 C   0  0  0  0  0  0  0  0  0  0  0  0
    4.0260   42.4750   51.1690 S   0  0  0  0  0  0  0  0  0  0  0  0
    6.9406   46.7114   55.7461 H   0  0  0  0  0  0  0  0  0  0  0  0
    5.9508   47.6859   54.6070 H   0  0  0  0  0  0  0  0  0  0  0  0
    5.8173   45.8946   54.6070 H   0  0  0  0  0  0  0  0  0  0  0  0
    9.0868   47.4476   55.0920 H   0  0  0  0  0  0  0  0  0  0  0  0
   10.9444   47.3896   53.4377 H   0  0  0  0  0  0  0  0  0  0  0  0
   10.5358   46.5588   51.1234 H   0  0  0  0  0  0  0  0  0  0  0  0
    8.2691   45.7752   50.4579 H   0  0  0  0  0  0  0  0  0  0  0  0
    6.2400   43.7600   52.9450 H   0  0  0  0  0  0  0  0  0  0  0  0
    0.1070   44.4512   50.3234 H   0  0  0  0  0  0  0  0  0  0  0  0
   -2.2265   45.1468   50.8416 H   0  0  0  0  0  0  0  0  0  0  0  0
   -3.0150   45.2226   53.2036 H   0  0  0  0  0  0  0  0  0  0  0  0
   -1.4759   44.5994   55.0570 H   0  0  0  0  0  0  0  0  0  0  0  0
    2.6724   44.3927   56.0096 H   0  0  0  0  0  0  0  0  0  0  0  0
    1.6236   41.8900   50.8501 H   0  0  0  0  0  0  0  0  0  0  0  0
  1  2  1  0
  2  3  2  0
  3  4  1  0
  4  5  2  0
  5  6  1  0
  6  7  2  0
  7  8  1  0
  8  9  2  0
  8 10  1  0
 10 11  1  0
 11 12  2  0
 12 13  1  0
 13 14  1  0
 14 15  2  0
 15 16  1  0
 16 17  2  0
 17 18  1  0
 18 19  2  0
 19 20  1  0
 20 21  1  0
 21 22  1  0
 21 23  1  0
 13 24  2  0
 24 25  1  0
  7  2  1  0
 25 11  1  0
 19 14  1  0
  1 26  1  0
  1 27  1  0
  1 28  1  0
  3 29  1  0
  4 30  1  0
  5 31  1  0
  6 32  1  0
 10 33  1  0
 15 34  1  0
 16 35  1  0
 17 36  1  0
 18 37  1  0
 21 38  1  0
 24 39  1  0
M  END
>  <meeko>  (2) 
{"is_sidechain": [false], "free_energy": -8.662, "intermolecular_energy": -10.64, "internal_energy": -0.791}

$$$$
ligand_71_conformer_2_docked
     RDKit          3D

 39 41  0  0  0  0  0  0  0  0999 V2000
   -0.9790   43.9030   53.1880 C   0  0  0  0  0  0  0  0  0  0  0  0
   -0.6280   44.3420   54.5860 C   0  0  0  0  0  0  0  0  0  0  0  0
   -1.6330   44.3280   55.5710 C   0  0  0  0  0  0  0  0  0  0  0  0
   -1.3590   44.7480   56.8720 C   0  0  0  0  0  0  0  0  0  0  0  0
   -0.0780   45.1790   57.2130 C   0  0  0  0  0  0  0  0  0  0  0  0
    0.9370   45.1860   56.2540 C   0  0  0  0  0  0  0  0  0  0  0  0
    0.6830   44.7640   54.9360 C   0  0  0  0  0  0  0  0  0  0  0  0
    1.8000   44.7580   53.9600 C   0  0  0  0  0  0  0  0  0  0  0  0
    2.2170   43.6620   53.4990 O   0  0  0  0  0  0  0  0  0  0  0  0
    2.4130   45.9940   53.5520 N   0  0  0  0  0  0  0  0  0  0  0  0
    3.5450   46.0670   52.6770 C   0  0  0  0  0  0  0  0  0  0  0  0
    4.8150   46.2550   53.0940 N   0  0  0  0  0  0  0  0  0  0  0  0
    5.7000   46.2740   52.0590 C   0  0  0  0  0  0  0  0  0  0  0  0
    7.1580   46.4630   52.2790 C   0  0  0  0  0  0  0  0  0  0  0  0
    7.6160   47.0650   53.4670 C   0  0  0  0  0  0  0  0  0  0  0  0
    8.9820   47.2370   53.6980 C   0  0  0  0  0  0  0  0  0  0  0  0
    9.9100   46.8120   52.7510 C   0  0  0  0  0  0  0  0  0  0  0  0
    9.4780   46.2120   51.5680 C   0  0  0  0  0  0  0  0  0  0  0  0
    8.1020   46.0320   51.3150 C   0  0  0  0  0  0  0  0  0  0  0  0
    7.6460   45.4500   50.1200 O   0  0  0  0  0  0  0  0  0  0  0  0
    7.9690   44.1370   49.6700 C   0  0  0  0  0  0  0  0  0  0  0  0
    8.7650   44.2300   48.5450 F   0  0  0  0  0  0  0  0  0  0  0  0
    6.8130   43.4510   49.3450 F   0  0  0  0  0  0  0  0  0  0  0  0
    5.1160   46.1020   50.7990 C   0  0  0  0  0  0  0  0  0  0  0  0
    3.4570   45.9170   51.0080 S   0  0  0  0  0  0  0  0  0  0  0  0
   -1.6653   43.0446   53.2347 H   0  0  0  0  0  0  0  0  0  0  0  0
   -1.4655   44.7328   52.6544 H   0  0  0  0  0  0  0  0  0  0  0  0
   -0.0625   43.6111   52.6544 H   0  0  0  0  0  0  0  0  0  0  0  0
   -2.6446   43.9823   55.3120 H   0  0  0  0  0  0  0  0  0  0  0  0
   -2.1553   44.7392   57.6308 H   0  0  0  0  0  0  0  0  0  0  0  0
    0.1337   45.5141   58.2391 H   0  0  0  0  0  0  0  0  0  0  0  0
    1.9459   45.5250   56.5319 H   0  0  0  0  0  0  0  0  0  0  0  0
    1.9930   46.8950   53.8730 H   0  0  0  0  0  0  0  0  0  0  0  0
    6.8898   47.4032   54.2208 H   0  0  0  0  0  0  0  0  0  0  0  0
    9.3259   47.7092   54.6301 H   0  0  0  0  0  0  0  0  0  0  0  0
   10.9856   46.9496   52.9360 H   0  0  0  0  0  0  0  0  0  0  0  0
   10.2171   45.8762   50.8257 H   0  0  0  0  0  0  0  0  0  0  0  0
    8.4993   43.5998   50.4701 H   0  0  0  0  0  0  0  0  0  0  0  0
    5.6499   46.0899   49.8373 H   0  0  0  0  0  0  0  0  0  0  0  0
  1  2  1  0
  2  3  2  0
  3  4  1  0
  4  5  2  0
  5  6  1  0
  6  7  2  0
  7  8  1  0
  8  9  2  0
  8 10  1  0
 10 11  1  0
 11 12  2  0
 12 13  1  0
 13 14  1  0
 14 15  2  0
 15 16  1  0
 16 17  2  0
 17 18  1  0
 18 19  2  0
 19 20  1  0
 20 21  1  0
 21 22  1  0
 21 23  1  0
 13 24  2  0
 24 25  1  0
  7  2  1  0
 25 11  1  0
 19 14  1  0
  1 26  1  0
  1 27  1  0
  1 28  1  0
  3 29  1  0
  4 30  1  0
  5 31  1  0
  6 32  1  0
 10 33  1  0
 15 34  1  0
 16 35  1  0
 17 36  1  0
 18 37  1  0
 21 38  1  0
 24 39  1  0
M  END
>  <meeko>  (3) 
{"is_sidechain": [false], "free_energy": -8.604, "intermolecular_energy": -11.389, "internal_energy": 0.033}

$$$$
ligand_71_conformer_2_docked
     RDKit          3D

 39 41  0  0  0  0  0  0  0  0999 V2000
   -0.0350   43.2740   53.6010 C   0  0  0  0  0  0  0  0  0  0  0  0
   -0.4020   44.1390   54.7780 C   0  0  0  0  0  0  0  0  0  0  0  0
   -1.6920   44.0230   55.3270 C   0  0  0  0  0  0  0  0  0  0  0  0
   -2.0820   44.8200   56.4020 C   0  0  0  0  0  0  0  0  0  0  0  0
   -1.1900   45.7400   56.9510 C   0  0  0  0  0  0  0  0  0  0  0  0
    0.1000   45.8600   56.4310 C   0  0  0  0  0  0  0  0  0  0  0  0
    0.5150   45.0630   55.3480 C   0  0  0  0  0  0  0  0  0  0  0  0
    1.9050   45.2030   54.8500 C   0  0  0  0  0  0  0  0  0  0  0  0
    2.8470   44.6320   55.4640 O   0  0  0  0  0  0  0  0  0  0  0  0
    2.1810   45.9970   53.6820 N   0  0  0  0  0  0  0  0  0  0  0  0
    3.5020   46.2460   53.1850 C   0  0  0  0  0  0  0  0  0  0  0  0
    4.1610   45.4260   52.3390 N   0  0  0  0  0  0  0  0  0  0  0  0
    5.3940   45.9030   52.0160 C   0  0  0  0  0  0  0  0  0  0  0  0
    6.3010   45.1700   51.0920 C   0  0  0  0  0  0  0  0  0  0  0  0
    5.8330   44.0310   50.4090 C   0  0  0  0  0  0  0  0  0  0  0  0
    6.6650   43.3380   49.5270 C   0  0  0  0  0  0  0  0  0  0  0  0
    7.9710   43.7700   49.3130 C   0  0  0  0  0  0  0  0  0  0  0  0
    8.4540   44.8970   49.9790 C   0  0  0  0  0  0  0  0  0  0  0  0
    7.6300   45.6080   50.8760 C   0  0  0  0  0  0  0  0  0  0  0  0
    8.1050   46.7320   51.5730 O   0  0  0  0  0  0  0  0  0  0  0  0
    9.2410   46.7470   52.4340 C   0  0  0  0  0  0  0  0  0  0  0  0
    9.2120   47.9000   53.1940 F   0  0  0  0  0  0  0  0  0  0  0  0
   10.4020   46.7330   51.6840 F   0  0  0  0  0  0  0  0  0  0  0  0
    5.7170   47.1230   52.6210 C   0  0  0  0  0  0  0  0  0  0  0  0
    4.4150   47.5990   53.5740 S   0  0  0  0  0  0  0  0  0  0  0  0
    0.3709   42.3173   53.9615 H   0  0  0  0  0  0  0  0  0  0  0  0
   -0.9307   43.0857   52.9909 H   0  0  0  0  0  0  0  0  0  0  0  0
    0.7229   43.7873   52.9909 H   0  0  0  0  0  0  0  0  0  0  0  0
   -2.4003   43.2957   54.9035 H   0  0  0  0  0  0  0  0  0  0  0  0
   -3.0957   44.7228   56.8180 H   0  0  0  0  0  0  0  0  0  0  0  0
   -1.5030   46.3722   57.7950 H   0  0  0  0  0  0  0  0  0  0  0  0
    0.7994   46.5852   56.8725 H   0  0  0  0  0  0  0  0  0  0  0  0
    1.3800   46.3850   53.1360 H   0  0  0  0  0  0  0  0  0  0  0  0
    4.8020   43.6837   50.5717 H   0  0  0  0  0  0  0  0  0  0  0  0
    6.2876   42.4491   49.0003 H   0  0  0  0  0  0  0  0  0  0  0  0
    8.6235   43.2218   48.6175 H   0  0  0  0  0  0  0  0  0  0  0  0
    9.4863   45.2338   49.8029 H   0  0  0  0  0  0  0  0  0  0  0  0
    9.2170   45.8598   53.0839 H   0  0  0  0  0  0  0  0  0  0  0  0
    6.6598   47.6755   52.4950 H   0  0  0  0  0  0  0  0  0  0  0  0
  1  2  1  0
  2  3  2  0
  3  4  1  0
  4  5  2  0
  5  6  1  0
  6  7  2  0
  7  8  1  0
  8  9  2  0
  8 10  1  0
 10 11  1  0
 11 12  2  0
 12 13  1  0
 13 14  1  0
 14 15  2  0
 15 16  1  0
 16 17  2  0
 17 18  1  0
 18 19  2  0
 19 20  1  0
 20 21  1  0
 21 22  1  0
 21 23  1  0
 13 24  2  0
 24 25  1  0
  7  2  1  0
 25 11  1  0
 19 14  1  0
  1 26  1  0
  1 27  1  0
  1 28  1  0
  3 29  1  0
  4 30  1  0
  5 31  1  0
  6 32  1  0
 10 33  1  0
 15 34  1  0
 16 35  1  0
 17 36  1  0
 18 37  1  0
 21 38  1  0
 24 39  1  0
M  END
>  <meeko>  (4) 
{"is_sidechain": [false], "free_energy": -8.441, "intermolecular_energy": -11.227, "internal_energy": 0.081}

$$$$
ligand_71_conformer_2_docked
     RDKit          3D

 39 41  0  0  0  0  0  0  0  0999 V2000
    1.5420   45.9700   56.8020 C   0  0  0  0  0  0  0  0  0  0  0  0
    0.4480   45.1990   56.1080 C   0  0  0  0  0  0  0  0  0  0  0  0
   -0.7070   44.8620   56.8360 C   0  0  0  0  0  0  0  0  0  0  0  0
   -1.7340   44.1300   56.2410 C   0  0  0  0  0  0  0  0  0  0  0  0
   -1.6280   43.7300   54.9100 C   0  0  0  0  0  0  0  0  0  0  0  0
   -0.4950   44.0670   54.1660 C   0  0  0  0  0  0  0  0  0  0  0  0
    0.5510   44.8080   54.7460 C   0  0  0  0  0  0  0  0  0  0  0  0
    1.7190   45.1710   53.9070 C   0  0  0  0  0  0  0  0  0  0  0  0
    1.6690   46.2020   53.1830 O   0  0  0  0  0  0  0  0  0  0  0  0
    2.8980   44.3460   53.9090 N   0  0  0  0  0  0  0  0  0  0  0  0
    4.0350   44.5840   53.0700 C   0  0  0  0  0  0  0  0  0  0  0  0
    5.1540   45.2220   53.4710 N   0  0  0  0  0  0  0  0  0  0  0  0
    6.0840   45.3030   52.4810 C   0  0  0  0  0  0  0  0  0  0  0  0
    7.4010   45.9610   52.6950 C   0  0  0  0  0  0  0  0  0  0  0  0
    7.6870   46.5710   53.9310 C   0  0  0  0  0  0  0  0  0  0  0  0
    8.9230   47.1810   54.1560 C   0  0  0  0  0  0  0  0  0  0  0  0
    9.8900   47.1880   53.1550 C   0  0  0  0  0  0  0  0  0  0  0  0
    9.6290   46.5870   51.9230 C   0  0  0  0  0  0  0  0  0  0  0  0
    8.3850   45.9700   51.6760 C   0  0  0  0  0  0  0  0  0  0  0  0
    8.0940   45.3790   50.4350 O   0  0  0  0  0  0  0  0  0  0  0  0
    9.0030   44.5980   49.6630 C   0  0  0  0  0  0  0  0  0  0  0  0
    8.3470   43.4770   49.1940 F   0  0  0  0  0  0  0  0  0  0  0  0
   10.0680   44.1990   50.4480 F   0  0  0  0  0  0  0  0  0  0  0  0
    5.6910   44.7210   51.2710 C   0  0  0  0  0  0  0  0  0  0  0  0
    4.1430   44.0910   51.4690 S   0  0  0  0  0  0  0  0  0  0  0  0
    1.4178   45.8825   57.8915 H   0  0  0  0  0  0  0  0  0  0  0  0
    2.5206   45.5609   56.5104 H   0  0  0  0  0  0  0  0  0  0  0  0
    1.4858   47.0292   56.5104 H   0  0  0  0  0  0  0  0  0  0  0  0
   -0.8013   45.1789   57.8851 H   0  0  0  0  0  0  0  0  0  0  0  0
   -2.6296   43.8677   56.8233 H   0  0  0  0  0  0  0  0  0  0  0  0
   -2.4376   43.1483   54.4450 H   0  0  0  0  0  0  0  0  0  0  0  0
   -0.4197   43.7497   53.1154 H   0  0  0  0  0  0  0  0  0  0  0  0
    2.9550   43.5500   54.5840 H   0  0  0  0  0  0  0  0  0  0  0  0
    6.9289   46.5672   54.7281 H   0  0  0  0  0  0  0  0  0  0  0  0
    9.1325   47.6565   55.1255 H   0  0  0  0  0  0  0  0  0  0  0  0
   10.8628   47.6687   53.3356 H   0  0  0  0  0  0  0  0  0  0  0  0
   10.3997   46.5945   51.1381 H   0  0  0  0  0  0  0  0  0  0  0  0
    9.3764   45.2013   48.8224 H   0  0  0  0  0  0  0  0  0  0  0  0
    6.2903   44.6819   50.3494 H   0  0  0  0  0  0  0  0  0  0  0  0
  1  2  1  0
  2  3  2  0
  3  4  1  0
  4  5  2  0
  5  6  1  0
  6  7  2  0
  7  8  1  0
  8  9  2  0
  8 10  1  0
 10 11  1  0
 11 12  2  0
 12 13  1  0
 13 14  1  0
 14 15  2  0
 15 16  1  0
 16 17  2  0
 17 18  1  0
 18 19  2  0
 19 20  1  0
 20 21  1  0
 21 22  1  0
 21 23  1  0
 13 24  2  0
 24 25  1  0
  7  2  1  0
 25 11  1  0
 19 14  1  0
  1 26  1  0
  1 27  1  0
  1 28  1  0
  3 29  1  0
  4 30  1  0
  5 31  1  0
  6 32  1  0
 10 33  1  0
 15 34  1  0
 16 35  1  0
 17 36  1  0
 18 37  1  0
 21 38  1  0
 24 39  1  0
M  END
>  <meeko>  (5) 
{"is_sidechain": [false], "free_energy": -8.365, "intermolecular_energy": -11.267, "internal_energy": 0.22}

$$$$
