MODEL 1
REMARK VINA RESULT:   -10.043      0.000      0.000
REMARK INTER + INTRA:         -13.774
REMARK INTER:                 -12.979
REMARK INTRA:                  -0.795
REMARK UNBOUND:                -0.795
REMARK SMILES O=C(c1ccc2c(c1)[nH]c(=O)n2C1CCCC1)N1CC[C@H](Oc2cccc(F)c2)C1
REMARK SMILES IDX 18 1 19 2 20 3 21 4 30 5 2 6 1 7 3 8 4 9 8 10 5 11 7 12 6 13
REMARK SMILES IDX 9 14 12 15 10 16 11 17 13 19 14 20 17 21 15 22 16 23 22 24
REMARK SMILES IDX 23 25 24 26 29 27 25 28 27 29 26 30 28 31
REMARK H PARENT 9 18
ROOT
ATOM      1  N   UNL     1       2.165  42.763  51.562  1.00  0.00    -0.335 N 
ATOM      2  C   UNL     1       0.967  43.152  50.836  1.00  0.00     0.124 C 
ATOM      3  C   UNL     1      -0.146  43.187  51.876  1.00  0.00     0.068 C 
ATOM      4  C   UNL     1       0.556  43.284  53.233  1.00  0.00     0.194 C 
ATOM      5  C   UNL     1       1.950  42.699  52.996  1.00  0.00     0.165 C 
ENDROOT
BRANCH   1   6
ATOM      6  C   UNL     1       3.361  42.269  50.936  1.00  0.00     0.254 C 
ATOM      7  O   UNL     1       3.375  41.103  50.456  1.00  0.00    -0.269 OA
BRANCH   6   8
ATOM      8  C   UNL     1       4.579  43.096  50.841  1.00  0.00     0.042 A 
ATOM      9  C   UNL     1       4.698  44.289  51.597  1.00  0.00     0.016 A 
ATOM     10  C   UNL     1       5.650  42.673  50.026  1.00  0.00     0.042 A 
ATOM     11  C   UNL     1       5.866  45.071  51.531  1.00  0.00     0.029 A 
ATOM     12  C   UNL     1       6.788  43.475  49.976  1.00  0.00     0.067 A 
ATOM     13  C   UNL     1       6.899  44.631  50.702  1.00  0.00     0.069 A 
ATOM     14  N   UNL     1       7.903  43.279  49.255  1.00  0.00    -0.306 N 
ATOM     15  N   UNL     1       8.105  45.195  50.458  1.00  0.00    -0.289 N 
ATOM     16  C   UNL     1       8.680  44.341  49.566  1.00  0.00     0.326 A 
ATOM     17  O   UNL     1       9.824  44.519  49.067  1.00  0.00    -0.248 OA
ATOM     18  H   UNL     1       8.117  42.494  48.602  1.00  0.00     0.171 HD
BRANCH  15  19
ATOM     19  C   UNL     1       8.658  46.443  51.013  1.00  0.00     0.092 C 
ATOM     20  C   UNL     1       9.903  46.179  51.876  1.00  0.00     0.025 C 
ATOM     21  C   UNL     1       7.640  47.171  51.908  1.00  0.00     0.025 C 
ATOM     22  C   UNL     1       9.539  46.583  53.303  1.00  0.00     0.002 C 
ATOM     23  C   UNL     1       8.403  47.583  53.164  1.00  0.00     0.002 C 
ENDBRANCH  15  19
ENDBRANCH   6   8
ENDBRANCH   1   6
BRANCH   4  24
ATOM     24  O   UNL     1       0.640  44.656  53.623  1.00  0.00    -0.488 OA
BRANCH  24  25
ATOM     25  C   UNL     1       1.821  45.335  53.968  1.00  0.00     0.122 A 
ATOM     26  C   UNL     1       2.560  45.030  55.129  1.00  0.00     0.046 A 
ATOM     27  C   UNL     1       2.277  46.351  53.117  1.00  0.00     0.085 A 
ATOM     28  C   UNL     1       3.739  45.721  55.413  1.00  0.00     0.007 A 
ATOM     29  C   UNL     1       3.453  47.044  53.407  1.00  0.00     0.126 A 
ATOM     30  C   UNL     1       4.189  46.724  54.551  1.00  0.00     0.039 A 
ATOM     31  F   UNL     1       3.888  48.022  52.573  1.00  0.00    -0.207 F 
ENDBRANCH  24  25
ENDBRANCH   4  24
TORSDOF 5
ENDMDL
MODEL 2
REMARK VINA RESULT:    -9.539      2.114      7.189
REMARK INTER + INTRA:         -13.122
REMARK INTER:                 -12.717
REMARK INTRA:                  -0.405
REMARK UNBOUND:                -0.795
REMARK SMILES O=C(c1ccc2c(c1)[nH]c(=O)n2C1CCCC1)N1CC[C@H](Oc2cccc(F)c2)C1
REMARK SMILES IDX 18 1 19 2 20 3 21 4 30 5 2 6 1 7 3 8 4 9 8 10 5 11 7 12 6 13
REMARK SMILES IDX 9 14 12 15 10 16 11 17 13 19 14 20 17 21 15 22 16 23 22 24
REMARK SMILES IDX 23 25 24 26 29 27 25 28 27 29 26 30 28 31
REMARK H PARENT 9 18
ROOT
ATOM      1  N   UNL     1       6.533  43.369  50.189  1.00  0.00    -0.335 N 
ATOM      2  C   UNL     1       7.635  42.909  49.359  1.00  0.00     0.124 C 
ATOM      3  C   UNL     1       8.364  44.171  48.916  1.00  0.00     0.068 C 
ATOM      4  C   UNL     1       7.938  45.265  49.897  1.00  0.00     0.194 C 
ATOM      5  C   UNL     1       6.586  44.797  50.443  1.00  0.00     0.165 C 
ENDROOT
BRANCH   1   6
ATOM      6  C   UNL     1       5.391  42.565  50.530  1.00  0.00     0.254 C 
ATOM      7  O   UNL     1       5.316  41.380  50.105  1.00  0.00    -0.269 OA
BRANCH   6   8
ATOM      8  C   UNL     1       4.299  43.094  51.368  1.00  0.00     0.042 A 
ATOM      9  C   UNL     1       2.950  42.975  50.948  1.00  0.00     0.016 A 
ATOM     10  C   UNL     1       4.595  43.682  52.616  1.00  0.00     0.042 A 
ATOM     11  C   UNL     1       1.899  43.454  51.753  1.00  0.00     0.029 A 
ATOM     12  C   UNL     1       3.533  44.154  53.383  1.00  0.00     0.067 A 
ATOM     13  C   UNL     1       2.230  44.045  52.974  1.00  0.00     0.069 A 
ATOM     14  N   UNL     1       3.586  44.765  54.578  1.00  0.00    -0.306 N 
ATOM     15  N   UNL     1       1.422  44.584  53.915  1.00  0.00    -0.289 N 
ATOM     16  C   UNL     1       2.291  45.017  54.870  1.00  0.00     0.326 A 
ATOM     17  O   UNL     1       1.932  45.603  55.927  1.00  0.00    -0.248 OA
ATOM     18  H   UNL     1       4.431  44.997  55.144  1.00  0.00     0.171 HD
BRANCH  15  19
ATOM     19  C   UNL     1      -0.048  44.693  53.902  1.00  0.00     0.092 C 
ATOM     20  C   UNL     1      -0.722  43.328  54.126  1.00  0.00     0.025 C 
ATOM     21  C   UNL     1      -0.569  45.233  52.559  1.00  0.00     0.025 C 
ATOM     22  C   UNL     1      -1.479  42.999  52.842  1.00  0.00     0.002 C 
ATOM     23  C   UNL     1      -1.743  44.337  52.172  1.00  0.00     0.002 C 
ENDBRANCH  15  19
ENDBRANCH   6   8
ENDBRANCH   1   6
BRANCH   4  24
ATOM     24  O   UNL     1       8.904  45.359  50.947  1.00  0.00    -0.488 OA
BRANCH  24  25
ATOM     25  C   UNL     1       8.918  46.336  51.957  1.00  0.00     0.122 A 
ATOM     26  C   UNL     1       8.116  47.494  51.904  1.00  0.00     0.046 A 
ATOM     27  C   UNL     1       9.763  46.140  53.058  1.00  0.00     0.085 A 
ATOM     28  C   UNL     1       8.153  48.422  52.947  1.00  0.00     0.007 A 
ATOM     29  C   UNL     1       9.802  47.073  54.096  1.00  0.00     0.126 A 
ATOM     30  C   UNL     1       8.991  48.209  54.045  1.00  0.00     0.039 A 
ATOM     31  F   UNL     1      10.619  46.870  55.160  1.00  0.00    -0.207 F 
ENDBRANCH  24  25
ENDBRANCH   4  24
TORSDOF 5
ENDMDL
MODEL 3
REMARK VINA RESULT:    -9.303      3.326      8.110
REMARK INTER + INTRA:         -12.817
REMARK INTER:                 -12.301
REMARK INTRA:                  -0.517
REMARK UNBOUND:                -0.795
REMARK SMILES O=C(c1ccc2c(c1)[nH]c(=O)n2C1CCCC1)N1CC[C@H](Oc2cccc(F)c2)C1
REMARK SMILES IDX 18 1 19 2 20 3 21 4 30 5 2 6 1 7 3 8 4 9 8 10 5 11 7 12 6 13
REMARK SMILES IDX 9 14 12 15 10 16 11 17 13 19 14 20 17 21 15 22 16 23 22 24
REMARK SMILES IDX 23 25 24 26 29 27 25 28 27 29 26 30 28 31
REMARK H PARENT 9 18
ROOT
ATOM      1  N   UNL     1       3.531  44.434  51.495  1.00  0.00    -0.335 N 
ATOM      2  C   UNL     1       4.664  43.540  51.669  1.00  0.00     0.124 C 
ATOM      3  C   UNL     1       5.828  44.215  50.954  1.00  0.00     0.068 C 
ATOM      4  C   UNL     1       5.433  45.687  50.814  1.00  0.00     0.194 C 
ATOM      5  C   UNL     1       3.903  45.690  50.870  1.00  0.00     0.165 C 
ENDROOT
BRANCH   1   6
ATOM      6  C   UNL     1       2.161  44.047  51.696  1.00  0.00     0.254 C 
ATOM      7  O   UNL     1       1.561  43.399  50.795  1.00  0.00    -0.269 OA
BRANCH   6   8
ATOM      8  C   UNL     1       1.437  44.389  52.934  1.00  0.00     0.042 A 
ATOM      9  C   UNL     1       0.034  44.198  53.021  1.00  0.00     0.016 A 
ATOM     10  C   UNL     1       2.150  44.868  54.054  1.00  0.00     0.042 A 
ATOM     11  C   UNL     1      -0.662  44.498  54.206  1.00  0.00     0.029 A 
ATOM     12  C   UNL     1       1.429  45.164  55.207  1.00  0.00     0.067 A 
ATOM     13  C   UNL     1       0.073  44.986  55.289  1.00  0.00     0.069 A 
ATOM     14  N   UNL     1       1.896  45.649  56.369  1.00  0.00    -0.306 N 
ATOM     15  N   UNL     1      -0.351  45.353  56.520  1.00  0.00    -0.289 N 
ATOM     16  C   UNL     1       0.792  45.757  57.141  1.00  0.00     0.326 A 
ATOM     17  O   UNL     1       0.826  46.197  58.322  1.00  0.00    -0.248 OA
ATOM     18  H   UNL     1       2.879  45.894  56.614  1.00  0.00     0.171 HD
BRANCH  15  19
ATOM     19  C   UNL     1      -1.724  45.335  57.056  1.00  0.00     0.092 C 
ATOM     20  C   UNL     1      -2.277  43.903  57.155  1.00  0.00     0.025 C 
ATOM     21  C   UNL     1      -2.695  46.128  56.165  1.00  0.00     0.025 C 
ATOM     22  C   UNL     1      -3.452  43.820  56.183  1.00  0.00     0.002 C 
ATOM     23  C   UNL     1      -3.935  45.250  56.008  1.00  0.00     0.002 C 
ENDBRANCH  15  19
ENDBRANCH   6   8
ENDBRANCH   1   6
BRANCH   4  24
ATOM     24  O   UNL     1       5.983  46.428  51.905  1.00  0.00    -0.488 OA
BRANCH  24  25
ATOM     25  C   UNL     1       7.350  46.536  52.211  1.00  0.00     0.122 A 
ATOM     26  C   UNL     1       8.362  46.166  51.304  1.00  0.00     0.046 A 
ATOM     27  C   UNL     1       7.711  47.036  53.470  1.00  0.00     0.085 A 
ATOM     28  C   UNL     1       9.706  46.315  51.651  1.00  0.00     0.007 A 
ATOM     29  C   UNL     1       9.056  47.179  53.817  1.00  0.00     0.126 A 
ATOM     30  C   UNL     1      10.054  46.825  52.905  1.00  0.00     0.039 A 
ATOM     31  F   UNL     1       9.395  47.670  55.035  1.00  0.00    -0.207 F 
ENDBRANCH  24  25
ENDBRANCH   4  24
TORSDOF 5
ENDMDL
MODEL 4
REMARK VINA RESULT:    -9.295      2.346      3.215
REMARK INTER + INTRA:         -12.807
REMARK INTER:                 -12.709
REMARK INTRA:                  -0.098
REMARK UNBOUND:                -0.795
REMARK SMILES O=C(c1ccc2c(c1)[nH]c(=O)n2C1CCCC1)N1CC[C@H](Oc2cccc(F)c2)C1
REMARK SMILES IDX 18 1 19 2 20 3 21 4 30 5 2 6 1 7 3 8 4 9 8 10 5 11 7 12 6 13
REMARK SMILES IDX 9 14 12 15 10 16 11 17 13 19 14 20 17 21 15 22 16 23 22 24
REMARK SMILES IDX 23 25 24 26 29 27 25 28 27 29 26 30 28 31
REMARK H PARENT 9 18
ROOT
ATOM      1  N   UNL     1       1.734  42.952  51.636  1.00  0.00    -0.335 N 
ATOM      2  C   UNL     1       0.891  43.446  50.559  1.00  0.00     0.124 C 
ATOM      3  C   UNL     1      -0.540  43.190  51.013  1.00  0.00     0.068 C 
ATOM      4  C   UNL     1      -0.468  43.001  52.530  1.00  0.00     0.194 C 
ATOM      5  C   UNL     1       0.969  42.548  52.801  1.00  0.00     0.165 C 
ENDROOT
BRANCH   1   6
ATOM      6  C   UNL     1       3.136  42.669  51.496  1.00  0.00     0.254 C 
ATOM      7  O   UNL     1       3.502  41.544  51.059  1.00  0.00    -0.269 OA
BRANCH   6   8
ATOM      8  C   UNL     1       4.163  43.665  51.853  1.00  0.00     0.042 A 
ATOM      9  C   UNL     1       5.182  44.009  50.928  1.00  0.00     0.016 A 
ATOM     10  C   UNL     1       4.106  44.313  53.105  1.00  0.00     0.042 A 
ATOM     11  C   UNL     1       6.152  44.976  51.250  1.00  0.00     0.029 A 
ATOM     12  C   UNL     1       5.086  45.258  53.395  1.00  0.00     0.067 A 
ATOM     13  C   UNL     1       6.075  45.585  52.504  1.00  0.00     0.069 A 
ATOM     14  N   UNL     1       5.237  45.969  54.524  1.00  0.00    -0.306 N 
ATOM     15  N   UNL     1       6.876  46.525  53.054  1.00  0.00    -0.289 N 
ATOM     16  C   UNL     1       6.333  46.724  54.288  1.00  0.00     0.326 A 
ATOM     17  O   UNL     1       6.803  47.528  55.137  1.00  0.00    -0.248 OA
ATOM     18  H   UNL     1       4.649  45.940  55.386  1.00  0.00     0.171 HD
BRANCH  15  19
ATOM     19  C   UNL     1       8.064  47.170  52.466  1.00  0.00     0.092 C 
ATOM     20  C   UNL     1       8.547  46.430  51.207  1.00  0.00     0.025 C 
ATOM     21  C   UNL     1       9.246  47.196  53.450  1.00  0.00     0.025 C 
ATOM     22  C   UNL     1       9.931  45.874  51.531  1.00  0.00     0.002 C 
ATOM     23  C   UNL     1      10.468  46.749  52.652  1.00  0.00     0.002 C 
ENDBRANCH  15  19
ENDBRANCH   6   8
ENDBRANCH   1   6
BRANCH   4  24
ATOM     24  O   UNL     1      -0.738  44.249  53.174  1.00  0.00    -0.488 OA
BRANCH  24  25
ATOM     25  C   UNL     1      -0.361  44.589  54.484  1.00  0.00     0.122 A 
ATOM     26  C   UNL     1      -1.190  44.352  55.598  1.00  0.00     0.046 A 
ATOM     27  C   UNL     1       0.893  45.183  54.681  1.00  0.00     0.085 A 
ATOM     28  C   UNL     1      -0.756  44.690  56.881  1.00  0.00     0.007 A 
ATOM     29  C   UNL     1       1.322  45.525  55.964  1.00  0.00     0.126 A 
ATOM     30  C   UNL     1       0.501  45.271  57.066  1.00  0.00     0.039 A 
ATOM     31  F   UNL     1       2.541  46.095  56.144  1.00  0.00    -0.207 F 
ENDBRANCH  24  25
ENDBRANCH   4  24
TORSDOF 5
ENDMDL
MODEL 5
REMARK VINA RESULT:    -9.166      2.421      7.767
REMARK INTER + INTRA:         -12.640
REMARK INTER:                 -12.037
REMARK INTRA:                  -0.603
REMARK UNBOUND:                -0.795
REMARK SMILES O=C(c1ccc2c(c1)[nH]c(=O)n2C1CCCC1)N1CC[C@H](Oc2cccc(F)c2)C1
REMARK SMILES IDX 18 1 19 2 20 3 21 4 30 5 2 6 1 7 3 8 4 9 8 10 5 11 7 12 6 13
REMARK SMILES IDX 9 14 12 15 10 16 11 17 13 19 14 20 17 21 15 22 16 23 22 24
REMARK SMILES IDX 23 25 24 26 29 27 25 28 27 29 26 30 28 31
REMARK H PARENT 9 18
ROOT
ATOM      1  N   UNL     1       7.406  46.957  53.013  1.00  0.00    -0.335 N 
ATOM      2  C   UNL     1       7.793  48.104  52.207  1.00  0.00     0.124 C 
ATOM      3  C   UNL     1       8.970  47.629  51.363  1.00  0.00     0.068 C 
ATOM      4  C   UNL     1       8.898  46.100  51.372  1.00  0.00     0.194 C 
ATOM      5  C   UNL     1       8.126  45.751  52.647  1.00  0.00     0.165 C 
ENDROOT
BRANCH   1   6
ATOM      6  C   UNL     1       6.584  47.041  54.189  1.00  0.00     0.254 C 
ATOM      7  O   UNL     1       7.043  47.586  55.230  1.00  0.00    -0.269 OA
BRANCH   6   8
ATOM      8  C   UNL     1       5.212  46.500  54.211  1.00  0.00     0.042 A 
ATOM      9  C   UNL     1       4.757  45.741  55.318  1.00  0.00     0.016 A 
ATOM     10  C   UNL     1       4.333  46.779  53.143  1.00  0.00     0.042 A 
ATOM     11  C   UNL     1       3.442  45.243  55.359  1.00  0.00     0.029 A 
ATOM     12  C   UNL     1       3.041  46.262  53.211  1.00  0.00     0.067 A 
ATOM     13  C   UNL     1       2.604  45.523  54.278  1.00  0.00     0.069 A 
ATOM     14  N   UNL     1       2.058  46.381  52.305  1.00  0.00    -0.306 N 
ATOM     15  N   UNL     1       1.318  45.160  54.071  1.00  0.00    -0.289 N 
ATOM     16  C   UNL     1       1.028  45.698  52.853  1.00  0.00     0.326 A 
ATOM     17  O   UNL     1      -0.088  45.572  52.281  1.00  0.00    -0.248 OA
ATOM     18  H   UNL     1       2.085  46.878  51.388  1.00  0.00     0.171 HD
BRANCH  15  19
ATOM     19  C   UNL     1       0.442  44.359  54.946  1.00  0.00     0.092 C 
ATOM     20  C   UNL     1      -0.508  43.464  54.133  1.00  0.00     0.025 C 
ATOM     21  C   UNL     1      -0.438  45.248  55.841  1.00  0.00     0.025 C 
ATOM     22  C   UNL     1      -1.924  43.957  54.418  1.00  0.00     0.002 C 
ATOM     23  C   UNL     1      -1.845  44.661  55.763  1.00  0.00     0.002 C 
ENDBRANCH  15  19
ENDBRANCH   6   8
ENDBRANCH   1   6
BRANCH   4  24
ATOM     24  O   UNL     1       8.192  45.655  50.212  1.00  0.00    -0.488 OA
BRANCH  24  25
ATOM     25  C   UNL     1       7.332  44.545  50.158  1.00  0.00     0.122 A 
ATOM     26  C   UNL     1       7.680  43.345  49.506  1.00  0.00     0.046 A 
ATOM     27  C   UNL     1       6.081  44.643  50.783  1.00  0.00     0.085 A 
ATOM     28  C   UNL     1       6.796  42.265  49.502  1.00  0.00     0.007 A 
ATOM     29  C   UNL     1       5.196  43.564  50.771  1.00  0.00     0.126 A 
ATOM     30  C   UNL     1       5.556  42.372  50.138  1.00  0.00     0.039 A 
ATOM     31  F   UNL     1       3.990  43.667  51.385  1.00  0.00    -0.207 F 
ENDBRANCH  24  25
ENDBRANCH   4  24
TORSDOF 5
ENDMDL
