ligand_6_conformer_2_docked
     RDKit          3D

 44 47  0  0  0  0  0  0  0  0999 V2000
    0.8650   43.4610   53.7890 O   0  0  0  0  0  0  0  0  0  0  0  0
    1.9090   43.8260   53.1860 C   0  0  0  0  0  0  0  0  0  0  0  0
    2.1690   43.5600   51.7580 C   0  0  0  0  0  0  0  0  0  0  0  0
    3.5560   44.2030   51.5120 C   0  0  2  0  0  0  0  0  0  0  0  0
    4.5470   43.1980   51.1060 N   0  0  0  0  0  0  0  0  0  0  0  0
    5.7920   43.5550   50.4920 C   0  0  0  0  0  0  0  0  0  0  0  0
    6.4070   42.7060   49.6240 N   0  0  0  0  0  0  0  0  0  0  0  0
    7.5860   43.0370   49.0390 C   0  0  0  0  0  0  0  0  0  0  0  0
    8.1840   44.2640   49.3240 C   0  0  0  0  0  0  0  0  0  0  0  0
    7.5420   45.1310   50.2090 C   0  0  0  0  0  0  0  0  0  0  0  0
    8.1400   46.3580   50.5220 O   0  0  0  0  0  0  0  0  0  0  0  0
    8.5490   46.7570   51.8020 C   0  0  0  0  0  0  0  0  0  0  0  0
    9.8340   46.4020   52.2360 C   0  0  0  0  0  0  0  0  0  0  0  0
   10.2860   46.7880   53.5020 C   0  0  0  0  0  0  0  0  0  0  0  0
    9.4610   47.5430   54.3380 C   0  0  0  0  0  0  0  0  0  0  0  0
    8.1870   47.9200   53.9090 C   0  0  0  0  0  0  0  0  0  0  0  0
    7.7310   47.5360   52.6430 C   0  0  0  0  0  0  0  0  0  0  0  0
    6.3650   44.7530   50.7810 N   0  0  0  0  0  0  0  0  0  0  0  0
    3.9840   44.8760   52.8500 C   0  0  1  0  0  0  0  0  0  0  0  0
    4.1180   46.4060   52.7410 C   0  0  0  0  0  0  0  0  0  0  0  0
    4.2690   47.0940   54.1210 C   0  0  0  0  0  0  0  0  0  0  0  0
    4.0090   46.1710   55.3310 C   0  0  0  0  0  0  0  0  0  0  0  0
    2.8060   45.2490   55.0960 C   0  0  0  0  0  0  0  0  0  0  0  0
    2.9370   44.5680   53.8100 N   0  0  0  0  0  0  0  0  0  0  0  0
    2.1971   42.4785   51.5591 H   0  0  0  0  0  0  0  0  0  0  0  0
    1.3875   43.9666   51.0993 H   0  0  0  0  0  0  0  0  0  0  0  0
    3.4968   44.9379   50.6957 H   0  0  0  0  0  0  0  0  0  0  0  0
    4.3660   42.1820   51.2760 H   0  0  0  0  0  0  0  0  0  0  0  0
    8.0694   42.3380   48.3407 H   0  0  0  0  0  0  0  0  0  0  0  0
    9.1420   44.5427   48.8608 H   0  0  0  0  0  0  0  0  0  0  0  0
   10.4910   45.8160   51.5765 H   0  0  0  0  0  0  0  0  0  0  0  0
   11.2917   46.4967   53.8392 H   0  0  0  0  0  0  0  0  0  0  0  0
    9.8152   47.8411   55.3358 H   0  0  0  0  0  0  0  0  0  0  0  0
    7.5409   48.5196   54.5670 H   0  0  0  0  0  0  0  0  0  0  0  0
    6.7308   47.8435   52.3038 H   0  0  0  0  0  0  0  0  0  0  0  0
    4.9733   44.4950   53.1434 H   0  0  0  0  0  0  0  0  0  0  0  0
    5.0046   46.6390   52.1330 H   0  0  0  0  0  0  0  0  0  0  0  0
    3.1955   46.7877   52.2792 H   0  0  0  0  0  0  0  0  0  0  0  0
    5.2950   47.4827   54.2002 H   0  0  0  0  0  0  0  0  0  0  0  0
    3.5042   47.8836   54.1611 H   0  0  0  0  0  0  0  0  0  0  0  0
    4.9022   45.5533   55.5060 H   0  0  0  0  0  0  0  0  0  0  0  0
    3.7892   46.8043   56.2031 H   0  0  0  0  0  0  0  0  0  0  0  0
    2.7591   44.5004   55.9006 H   0  0  0  0  0  0  0  0  0  0  0  0
    1.8863   45.8525   55.0910 H   0  0  0  0  0  0  0  0  0  0  0  0
  1  2  2  0
  2  3  1  0
  3  4  1  0
  4  5  1  0
  5  6  1  0
  6  7  2  0
  7  8  1  0
  8  9  2  0
  9 10  1  0
 10 11  1  0
 11 12  1  0
 12 13  2  0
 13 14  1  0
 14 15  2  0
 15 16  1  0
 16 17  2  0
 10 18  2  0
  4 19  1  0
 19 20  1  0
 20 21  1  0
 21 22  1  0
 22 23  1  0
 23 24  1  0
 24  2  1  0
 18  6  1  0
 24 19  1  0
 17 12  1  0
  3 25  1  0
  3 26  1  0
  4 27  1  6
  5 28  1  0
  8 29  1  0
  9 30  1  0
 13 31  1  0
 14 32  1  0
 15 33  1  0
 16 34  1  0
 17 35  1  0
 19 36  1  1
 20 37  1  0
 20 38  1  0
 21 39  1  0
 21 40  1  0
 22 41  1  0
 22 42  1  0
 23 43  1  0
 23 44  1  0
M  END
>  <meeko>  (1) 
{"is_sidechain": [false], "free_energy": -9.218, "intermolecular_energy": -11.374, "internal_energy": -0.756}

$$$$
ligand_6_conformer_2_docked
     RDKit          3D

 44 47  0  0  0  0  0  0  0  0999 V2000
   -0.7410   45.6030   51.9770 O   0  0  0  0  0  0  0  0  0  0  0  0
    0.2450   45.2640   52.6840 C   0  0  0  0  0  0  0  0  0  0  0  0
    1.6490   45.3850   52.2460 C   0  0  0  0  0  0  0  0  0  0  0  0
    2.4570   44.8470   53.4530 C   0  0  2  0  0  0  0  0  0  0  0  0
    3.2330   43.6550   53.0880 N   0  0  0  0  0  0  0  0  0  0  0  0
    4.2730   43.6900   52.1020 C   0  0  0  0  0  0  0  0  0  0  0  0
    4.4970   42.6210   51.2890 N   0  0  0  0  0  0  0  0  0  0  0  0
    5.4790   42.6480   50.3530 C   0  0  0  0  0  0  0  0  0  0  0  0
    6.2770   43.7830   50.2140 C   0  0  0  0  0  0  0  0  0  0  0  0
    6.0350   44.8760   51.0460 C   0  0  0  0  0  0  0  0  0  0  0  0
    6.8400   46.0160   50.9320 O   0  0  0  0  0  0  0  0  0  0  0  0
    7.8250   46.4070   51.8510 C   0  0  0  0  0  0  0  0  0  0  0  0
    9.1620   46.0860   51.5780 C   0  0  0  0  0  0  0  0  0  0  0  0
   10.1770   46.4650   52.4610 C   0  0  0  0  0  0  0  0  0  0  0  0
    9.8640   47.1800   53.6190 C   0  0  0  0  0  0  0  0  0  0  0  0
    8.5380   47.5250   53.8920 C   0  0  0  0  0  0  0  0  0  0  0  0
    7.5200   47.1470   53.0100 C   0  0  0  0  0  0  0  0  0  0  0  0
    5.0440   44.8020   51.9780 N   0  0  0  0  0  0  0  0  0  0  0  0
    1.4240   44.5000   54.5670 C   0  0  1  0  0  0  0  0  0  0  0  0
    1.5900   45.3620   55.8320 C   0  0  0  0  0  0  0  0  0  0  0  0
    0.4040   45.2110   56.8180 C   0  0  0  0  0  0  0  0  0  0  0  0
   -0.8100   44.4460   56.2510 C   0  0  0  0  0  0  0  0  0  0  0  0
   -1.1060   44.8410   54.7990 C   0  0  0  0  0  0  0  0  0  0  0  0
    0.1130   44.7590   53.9960 N   0  0  0  0  0  0  0  0  0  0  0  0
    1.8336   44.7772   51.3479 H   0  0  0  0  0  0  0  0  0  0  0  0
    1.9237   46.4148   51.9737 H   0  0  0  0  0  0  0  0  0  0  0  0
    3.1785   45.6026   53.7972 H   0  0  0  0  0  0  0  0  0  0  0  0
    3.0480   42.7420   53.5630 H   0  0  0  0  0  0  0  0  0  0  0  0
    5.6454   41.7753   49.7044 H   0  0  0  0  0  0  0  0  0  0  0  0
    7.0807   43.8157   49.4637 H   0  0  0  0  0  0  0  0  0  0  0  0
    9.4142   45.5317   50.6620 H   0  0  0  0  0  0  0  0  0  0  0  0
   11.2223   46.2001   52.2438 H   0  0  0  0  0  0  0  0  0  0  0  0
   10.6624   47.4719   54.3170 H   0  0  0  0  0  0  0  0  0  0  0  0
    8.2942   48.0943   54.8011 H   0  0  0  0  0  0  0  0  0  0  0  0
    6.4781   47.4286   53.2223 H   0  0  0  0  0  0  0  0  0  0  0  0
    1.5670   43.4547   54.8784 H   0  0  0  0  0  0  0  0  0  0  0  0
    2.5149   45.0598   56.3450 H   0  0  0  0  0  0  0  0  0  0  0  0
    1.6265   46.4146   55.5146 H   0  0  0  0  0  0  0  0  0  0  0  0
    0.7637   44.6728   57.7073 H   0  0  0  0  0  0  0  0  0  0  0  0
    0.0536   46.2293   57.0420 H   0  0  0  0  0  0  0  0  0  0  0  0
   -0.6007   43.3668   56.2906 H   0  0  0  0  0  0  0  0  0  0  0  0
   -1.6895   44.7014   56.8604 H   0  0  0  0  0  0  0  0  0  0  0  0
   -1.8617   44.1583   54.3834 H   0  0  0  0  0  0  0  0  0  0  0  0
   -1.4818   45.8746   54.7772 H   0  0  0  0  0  0  0  0  0  0  0  0
  1  2  2  0
  2  3  1  0
  3  4  1  0
  4  5  1  0
  5  6  1  0
  6  7  2  0
  7  8  1  0
  8  9  2  0
  9 10  1  0
 10 11  1  0
 11 12  1  0
 12 13  2  0
 13 14  1  0
 14 15  2  0
 15 16  1  0
 16 17  2  0
 10 18  2  0
  4 19  1  0
 19 20  1  0
 20 21  1  0
 21 22  1  0
 22 23  1  0
 23 24  1  0
 24  2  1  0
 18  6  1  0
 24 19  1  0
 17 12  1  0
  3 25  1  0
  3 26  1  0
  4 27  1  1
  5 28  1  0
  8 29  1  0
  9 30  1  0
 13 31  1  0
 14 32  1  0
 15 33  1  0
 16 34  1  0
 17 35  1  0
 19 36  1  1
 20 37  1  0
 20 38  1  0
 21 39  1  0
 21 40  1  0
 22 41  1  0
 22 42  1  0
 23 43  1  0
 23 44  1  0
M  END
>  <meeko>  (2) 
{"is_sidechain": [false], "free_energy": -9.095, "intermolecular_energy": -11.4, "internal_energy": -0.577}

$$$$
ligand_6_conformer_2_docked
     RDKit          3D

 44 47  0  0  0  0  0  0  0  0999 V2000
    4.0130   45.7900   55.4090 O   0  0  0  0  0  0  0  0  0  0  0  0
    3.7060   45.0970   54.4030 C   0  0  0  0  0  0  0  0  0  0  0  0
    4.6920   44.4010   53.5520 C   0  0  0  0  0  0  0  0  0  0  0  0
    3.8220   43.7040   52.4780 C   0  0  2  0  0  0  0  0  0  0  0  0
    4.1330   44.2020   51.1320 N   0  0  0  0  0  0  0  0  0  0  0  0
    5.4630   44.1840   50.5970 C   0  0  0  0  0  0  0  0  0  0  0  0
    5.8990   43.1280   49.8570 N   0  0  0  0  0  0  0  0  0  0  0  0
    7.1570   43.1040   49.3460 C   0  0  0  0  0  0  0  0  0  0  0  0
    8.0220   44.1720   49.5790 C   0  0  0  0  0  0  0  0  0  0  0  0
    7.5640   45.2520   50.3330 C   0  0  0  0  0  0  0  0  0  0  0  0
    8.4280   46.3230   50.5930 O   0  0  0  0  0  0  0  0  0  0  0  0
    8.7500   46.8130   51.8670 C   0  0  0  0  0  0  0  0  0  0  0  0
    9.8710   46.2880   52.5230 C   0  0  0  0  0  0  0  0  0  0  0  0
   10.2340   46.7560   53.7910 C   0  0  0  0  0  0  0  0  0  0  0  0
    9.4850   47.7620   54.4050 C   0  0  0  0  0  0  0  0  0  0  0  0
    8.3780   48.3080   53.7520 C   0  0  0  0  0  0  0  0  0  0  0  0
    8.0120   47.8430   52.4840 C   0  0  0  0  0  0  0  0  0  0  0  0
    6.2970   45.2300   50.8330 N   0  0  0  0  0  0  0  0  0  0  0  0
    2.3360   44.0060   52.8370 C   0  0  1  0  0  0  0  0  0  0  0  0
    1.5330   42.7410   53.1940 C   0  0  0  0  0  0  0  0  0  0  0  0
    0.1490   43.0660   53.8120 C   0  0  0  0  0  0  0  0  0  0  0  0
   -0.0570   44.5500   54.1820 C   0  0  0  0  0  0  0  0  0  0  0  0
    1.1970   45.1580   54.8230 C   0  0  0  0  0  0  0  0  0  0  0  0
    2.3710   44.8780   53.9980 N   0  0  0  0  0  0  0  0  0  0  0  0
    5.3865   45.1178   53.0896 H   0  0  0  0  0  0  0  0  0  0  0  0
    5.3196   43.6954   54.1162 H   0  0  0  0  0  0  0  0  0  0  0  0
    4.0199   42.6220   52.4696 H   0  0  0  0  0  0  0  0  0  0  0  0
    3.3710   44.5720   50.5190 H   0  0  0  0  0  0  0  0  0  0  0  0
    7.4928   42.2432   48.7492 H   0  0  0  0  0  0  0  0  0  0  0  0
    9.0455   44.1630   49.1761 H   0  0  0  0  0  0  0  0  0  0  0  0
   10.4698   45.5028   52.0383 H   0  0  0  0  0  0  0  0  0  0  0  0
   11.1095   46.3313   54.3041 H   0  0  0  0  0  0  0  0  0  0  0  0
    9.7674   48.1248   55.4043 H   0  0  0  0  0  0  0  0  0  0  0  0
    7.7930   49.1046   54.2350 H   0  0  0  0  0  0  0  0  0  0  0  0
    7.1460   48.2825   51.9674 H   0  0  0  0  0  0  0  0  0  0  0  0
    1.8393   44.4574   51.9655 H   0  0  0  0  0  0  0  0  0  0  0  0
    1.3798   42.1512   52.2782 H   0  0  0  0  0  0  0  0  0  0  0  0
    2.1098   42.1823   53.9457 H   0  0  0  0  0  0  0  0  0  0  0  0
   -0.6264   42.7829   53.0850 H   0  0  0  0  0  0  0  0  0  0  0  0
    0.0866   42.4987   54.7524 H   0  0  0  0  0  0  0  0  0  0  0  0
   -0.2991   45.1140   53.2692 H   0  0  0  0  0  0  0  0  0  0  0  0
   -0.8768   44.6089   54.9130 H   0  0  0  0  0  0  0  0  0  0  0  0
    1.0676   46.2466   54.9135 H   0  0  0  0  0  0  0  0  0  0  0  0
    1.3431   44.7135   55.8185 H   0  0  0  0  0  0  0  0  0  0  0  0
  1  2  2  0
  2  3  1  0
  3  4  1  0
  4  5  1  0
  5  6  1  0
  6  7  2  0
  7  8  1  0
  8  9  2  0
  9 10  1  0
 10 11  1  0
 11 12  1  0
 12 13  2  0
 13 14  1  0
 14 15  2  0
 15 16  1  0
 16 17  2  0
 10 18  2  0
  4 19  1  0
 19 20  1  0
 20 21  1  0
 21 22  1  0
 22 23  1  0
 23 24  1  0
 24  2  1  0
 18  6  1  0
 24 19  1  0
 17 12  1  0
  3 25  1  0
  3 26  1  0
  4 27  1  6
  5 28  1  0
  8 29  1  0
  9 30  1  0
 13 31  1  0
 14 32  1  0
 15 33  1  0
 16 34  1  0
 17 35  1  0
 19 36  1  6
 20 37  1  0
 20 38  1  0
 21 39  1  0
 21 40  1  0
 22 41  1  0
 22 42  1  0
 23 43  1  0
 23 44  1  0
M  END
>  <meeko>  (3) 
{"is_sidechain": [false], "free_energy": -9.053, "intermolecular_energy": -11.393, "internal_energy": -0.532}

$$$$
ligand_6_conformer_2_docked
     RDKit          3D

 44 47  0  0  0  0  0  0  0  0999 V2000
    3.5560   40.1990   49.8910 O   0  0  0  0  0  0  0  0  0  0  0  0
    4.0190   41.3000   50.2920 C   0  0  0  0  0  0  0  0  0  0  0  0
    3.7640   41.8580   51.6350 C   0  0  0  0  0  0  0  0  0  0  0  0
    4.5430   43.1960   51.6300 C   0  0  2  0  0  0  0  0  0  0  0  0
    3.6390   44.3400   51.8060 N   0  0  0  0  0  0  0  0  0  0  0  0
    3.9180   45.4010   52.7300 C   0  0  0  0  0  0  0  0  0  0  0  0
    3.0830   45.6470   53.7760 N   0  0  0  0  0  0  0  0  0  0  0  0
    3.3410   46.6490   54.6550 C   0  0  0  0  0  0  0  0  0  0  0  0
    4.4750   47.4430   54.4920 C   0  0  0  0  0  0  0  0  0  0  0  0
    5.3290   47.1770   53.4210 C   0  0  0  0  0  0  0  0  0  0  0  0
    6.4620   47.9790   53.2320 O   0  0  0  0  0  0  0  0  0  0  0  0
    7.7560   47.5040   52.9760 C   0  0  0  0  0  0  0  0  0  0  0  0
    8.6950   47.5250   54.0160 C   0  0  0  0  0  0  0  0  0  0  0  0
    9.9950   47.0510   53.8070 C   0  0  0  0  0  0  0  0  0  0  0  0
   10.3600   46.5410   52.5600 C   0  0  0  0  0  0  0  0  0  0  0  0
    9.4270   46.4950   51.5210 C   0  0  0  0  0  0  0  0  0  0  0  0
    8.1270   46.9680   51.7270 C   0  0  0  0  0  0  0  0  0  0  0  0
    5.0270   46.1680   52.5580 N   0  0  0  0  0  0  0  0  0  0  0  0
    5.2710   43.2870   50.2550 C   0  0  1  0  0  0  0  0  0  0  0  0
    6.8050   43.2900   50.3840 C   0  0  0  0  0  0  0  0  0  0  0  0
    7.5210   43.1020   49.0220 C   0  0  0  0  0  0  0  0  0  0  0  0
    6.5900   42.7030   47.8580 C   0  0  0  0  0  0  0  0  0  0  0  0
    5.5480   41.6650   48.2900 C   0  0  0  0  0  0  0  0  0  0  0  0
    4.8690   42.1090   49.5060 N   0  0  0  0  0  0  0  0  0  0  0  0
    2.6888   42.0306   51.7905 H   0  0  0  0  0  0  0  0  0  0  0  0
    4.0803   41.1834   52.4442 H   0  0  0  0  0  0  0  0  0  0  0  0
    5.2591   43.2255   52.4644 H   0  0  0  0  0  0  0  0  0  0  0  0
    2.7650   44.4130   51.2360 H   0  0  0  0  0  0  0  0  0  0  0  0
    2.6556   46.8341   55.4952 H   0  0  0  0  0  0  0  0  0  0  0  0
    4.6922   48.2623   55.1931 H   0  0  0  0  0  0  0  0  0  0  0  0
    8.4083   47.9166   55.0031 H   0  0  0  0  0  0  0  0  0  0  0  0
   10.7293   47.0803   54.6255 H   0  0  0  0  0  0  0  0  0  0  0  0
   11.3840   46.1747   52.3950 H   0  0  0  0  0  0  0  0  0  0  0  0
    9.7149   46.0868   50.5410 H   0  0  0  0  0  0  0  0  0  0  0  0
    7.3913   46.9213   50.9106 H   0  0  0  0  0  0  0  0  0  0  0  0
    4.9957   44.2321   49.7641 H   0  0  0  0  0  0  0  0  0  0  0  0
    7.1197   44.2509   50.8172 H   0  0  0  0  0  0  0  0  0  0  0  0
    7.0857   42.4423   51.0264 H   0  0  0  0  0  0  0  0  0  0  0  0
    8.0127   44.0501   48.7588 H   0  0  0  0  0  0  0  0  0  0  0  0
    8.2298   42.2712   49.1538 H   0  0  0  0  0  0  0  0  0  0  0  0
    6.0684   43.6012   47.4958 H   0  0  0  0  0  0  0  0  0  0  0  0
    7.2077   42.2565   47.0649 H   0  0  0  0  0  0  0  0  0  0  0  0
    4.8078   41.5367   47.4865 H   0  0  0  0  0  0  0  0  0  0  0  0
    6.0542   40.7090   48.4896 H   0  0  0  0  0  0  0  0  0  0  0  0
  1  2  2  0
  2  3  1  0
  3  4  1  0
  4  5  1  0
  5  6  1  0
  6  7  2  0
  7  8  1  0
  8  9  2  0
  9 10  1  0
 10 11  1  0
 11 12  1  0
 12 13  2  0
 13 14  1  0
 14 15  2  0
 15 16  1  0
 16 17  2  0
 10 18  2  0
  4 19  1  0
 19 20  1  0
 20 21  1  0
 21 22  1  0
 22 23  1  0
 23 24  1  0
 24  2  1  0
 18  6  1  0
 24 19  1  0
 17 12  1  0
  3 25  1  0
  3 26  1  0
  4 27  1  1
  5 28  1  0
  8 29  1  0
  9 30  1  0
 13 31  1  0
 14 32  1  0
 15 33  1  0
 16 34  1  0
 17 35  1  0
 19 36  1  6
 20 37  1  0
 20 38  1  0
 21 39  1  0
 21 40  1  0
 22 41  1  0
 22 42  1  0
 23 43  1  0
 23 44  1  0
M  END
>  <meeko>  (4) 
{"is_sidechain": [false], "free_energy": -8.539, "intermolecular_energy": -10.535, "internal_energy": -0.756}

$$$$
ligand_6_conformer_2_docked
     RDKit          3D

 44 47  0  0  0  0  0  0  0  0999 V2000
   -1.0840   45.7360   57.5700 O   0  0  0  0  0  0  0  0  0  0  0  0
   -0.3230   45.3690   56.6350 C   0  0  0  0  0  0  0  0  0  0  0  0
    1.1090   45.0610   56.8140 C   0  0  0  0  0  0  0  0  0  0  0  0
    1.5790   44.6640   55.3940 C   0  0  2  0  0  0  0  0  0  0  0  0
    2.6110   45.5830   54.8960 N   0  0  0  0  0  0  0  0  0  0  0  0
    3.5010   45.2290   53.8300 C   0  0  0  0  0  0  0  0  0  0  0  0
    3.4120   44.0130   53.2250 N   0  0  0  0  0  0  0  0  0  0  0  0
    4.2510   43.6710   52.2140 C   0  0  0  0  0  0  0  0  0  0  0  0
    5.2230   44.5730   51.7820 C   0  0  0  0  0  0  0  0  0  0  0  0
    5.3010   45.8200   52.4020 C   0  0  0  0  0  0  0  0  0  0  0  0
    6.2850   46.7290   51.9930 O   0  0  0  0  0  0  0  0  0  0  0  0
    7.6050   46.7610   52.4650 C   0  0  0  0  0  0  0  0  0  0  0  0
    8.6360   46.3760   51.5980 C   0  0  0  0  0  0  0  0  0  0  0  0
    9.9680   46.4030   52.0240 C   0  0  0  0  0  0  0  0  0  0  0  0
   10.2790   46.8280   53.3170 C   0  0  0  0  0  0  0  0  0  0  0  0
    9.2610   47.2350   54.1840 C   0  0  0  0  0  0  0  0  0  0  0  0
    7.9290   47.2090   53.7610 C   0  0  0  0  0  0  0  0  0  0  0  0
    4.4450   46.1170   53.4190 N   0  0  0  0  0  0  0  0  0  0  0  0
    0.3230   44.7120   54.4740 C   0  0  1  0  0  0  0  0  0  0  0  0
   -0.0510   43.3360   53.8920 C   0  0  0  0  0  0  0  0  0  0  0  0
   -1.4440   43.3330   53.2120 C   0  0  0  0  0  0  0  0  0  0  0  0
   -2.2830   44.6030   53.4600 C   0  0  0  0  0  0  0  0  0  0  0  0
   -2.1760   45.0830   54.9130 C   0  0  0  0  0  0  0  0  0  0  0  0
   -0.7720   45.1760   55.3100 N   0  0  0  0  0  0  0  0  0  0  0  0
    1.6576   45.9428   57.1765 H   0  0  0  0  0  0  0  0  0  0  0  0
    1.2852   44.2702   57.5580 H   0  0  0  0  0  0  0  0  0  0  0  0
    2.0273   43.6596   55.4073 H   0  0  0  0  0  0  0  0  0  0  0  0
    2.7060   46.5390   55.3090 H   0  0  0  0  0  0  0  0  0  0  0  0
    4.1643   42.6840   51.7363 H   0  0  0  0  0  0  0  0  0  0  0  0
    5.9141   44.3064   50.9688 H   0  0  0  0  0  0  0  0  0  0  0  0
    8.3963   46.0502   50.5751 H   0  0  0  0  0  0  0  0  0  0  0  0
   10.7706   46.0894   51.3402 H   0  0  0  0  0  0  0  0  0  0  0  0
   11.3261   46.8426   53.6537 H   0  0  0  0  0  0  0  0  0  0  0  0
    9.5083   47.5761   55.2001 H   0  0  0  0  0  0  0  0  0  0  0  0
    7.1310   47.5394   54.4422 H   0  0  0  0  0  0  0  0  0  0  0  0
    0.5294   45.3701   53.6171 H   0  0  0  0  0  0  0  0  0  0  0  0
    0.7056   43.0521   53.1457 H   0  0  0  0  0  0  0  0  0  0  0  0
   -0.0871   42.6207   54.7269 H   0  0  0  0  0  0  0  0  0  0  0  0
   -1.2959   43.2262   52.1273 H   0  0  0  0  0  0  0  0  0  0  0  0
   -2.0053   42.4974   53.6556 H   0  0  0  0  0  0  0  0  0  0  0  0
   -1.9248   45.4018   52.7940 H   0  0  0  0  0  0  0  0  0  0  0  0
   -3.3367   44.3612   53.2570 H   0  0  0  0  0  0  0  0  0  0  0  0
   -2.6462   46.0732   55.0045 H   0  0  0  0  0  0  0  0  0  0  0  0
   -2.6882   44.3631   55.5683 H   0  0  0  0  0  0  0  0  0  0  0  0
  1  2  2  0
  2  3  1  0
  3  4  1  0
  4  5  1  0
  5  6  1  0
  6  7  2  0
  7  8  1  0
  8  9  2  0
  9 10  1  0
 10 11  1  0
 11 12  1  0
 12 13  2  0
 13 14  1  0
 14 15  2  0
 15 16  1  0
 16 17  2  0
 10 18  2  0
  4 19  1  0
 19 20  1  0
 20 21  1  0
 21 22  1  0
 22 23  1  0
 23 24  1  0
 24  2  1  0
 18  6  1  0
 24 19  1  0
 17 12  1  0
  3 25  1  0
  3 26  1  0
  4 27  1  1
  5 28  1  0
  8 29  1  0
  9 30  1  0
 13 31  1  0
 14 32  1  0
 15 33  1  0
 16 34  1  0
 17 35  1  0
 19 36  1  6
 20 37  1  0
 20 38  1  0
 21 39  1  0
 21 40  1  0
 22 41  1  0
 22 42  1  0
 23 43  1  0
 23 44  1  0
M  END
>  <meeko>  (5) 
{"is_sidechain": [false], "free_energy": -8.182, "intermolecular_energy": -10.289, "internal_energy": -0.562}

$$$$
