ligand_53_conformer_2_docked
     RDKit          3D

 38 40  0  0  0  0  0  0  0  0999 V2000
    1.1410   45.5340   54.7740 N   0  0  0  0  0  0  0  0  0  0  0  0
    2.2850   45.4560   54.6140 C   0  0  0  0  0  0  0  0  0  0  0  0
    3.7050   45.3630   54.4170 C   0  0  0  0  0  0  0  0  0  0  0  0
    4.2510   45.4880   53.1360 C   0  0  0  0  0  0  0  0  0  0  0  0
    5.6490   45.4140   52.9860 C   0  0  0  0  0  0  0  0  0  0  0  0
    6.2860   45.5610   51.6910 N   0  0  0  0  0  0  0  0  0  0  0  0
    7.6610   46.0740   51.5560 C   0  0  0  0  0  0  0  0  0  0  0  0
    7.7390   47.5440   52.0240 C   0  0  0  0  0  0  0  0  0  0  0  0
    8.9720   47.9350   52.8760 C   0  0  1  0  0  0  0  0  0  0  0  0
    8.7460   47.9690   54.3870 C   0  0  0  0  0  0  0  0  0  0  0  0
    9.7990   46.8820   54.5600 C   0  0  2  0  0  0  0  0  0  0  0  0
   10.9030   47.3300   55.2660 F   0  0  0  0  0  0  0  0  0  0  0  0
   10.0500   46.8640   53.0570 C   0  0  0  0  0  0  0  0  0  0  0  0
    5.5920   45.1020   50.4790 C   0  0  0  0  0  0  0  0  0  0  0  0
    5.6480   43.6090   50.3820 C   0  0  0  0  0  0  0  0  0  0  0  0
    6.6050   42.8400   49.7370 C   0  0  0  0  0  0  0  0  0  0  0  0
    6.3080   41.4620   49.7540 C   0  0  0  0  0  0  0  0  0  0  0  0
    5.1530   41.1020   50.3740 N   0  0  0  0  0  0  0  0  0  0  0  0
    4.4920   42.5310   50.9060 S   0  0  0  0  0  0  0  0  0  0  0  0
    6.4130   45.2070   54.0930 N   0  0  0  0  0  0  0  0  0  0  0  0
    5.8620   45.0770   55.3270 C   0  0  0  0  0  0  0  0  0  0  0  0
    4.5180   45.1610   55.4850 N   0  0  0  0  0  0  0  0  0  0  0  0
    3.6008   45.6412   52.2621 H   0  0  0  0  0  0  0  0  0  0  0  0
    8.3375   45.4621   52.1707 H   0  0  0  0  0  0  0  0  0  0  0  0
    7.9578   46.0215   50.4981 H   0  0  0  0  0  0  0  0  0  0  0  0
    7.7376   48.1806   51.1269 H   0  0  0  0  0  0  0  0  0  0  0  0
    6.8720   47.6844   52.6862 H   0  0  0  0  0  0  0  0  0  0  0  0
    9.2093   48.8565   52.3242 H   0  0  0  0  0  0  0  0  0  0  0  0
    9.0062   48.9275   54.8599 H   0  0  0  0  0  0  0  0  0  0  0  0
    7.7365   47.8418   54.8049 H   0  0  0  0  0  0  0  0  0  0  0  0
    9.5537   45.9526   55.0949 H   0  0  0  0  0  0  0  0  0  0  0  0
   11.0600   47.1871   52.7647 H   0  0  0  0  0  0  0  0  0  0  0  0
   10.0040   45.9212   52.4922 H   0  0  0  0  0  0  0  0  0  0  0  0
    4.5409   45.4239   50.5188 H   0  0  0  0  0  0  0  0  0  0  0  0
    6.0861   45.5366   49.5975 H   0  0  0  0  0  0  0  0  0  0  0  0
    7.5028   43.2616   49.2614 H   0  0  0  0  0  0  0  0  0  0  0  0
    6.9741   40.7190   49.2911 H   0  0  0  0  0  0  0  0  0  0  0  0
    6.5074   44.9031   56.2006 H   0  0  0  0  0  0  0  0  0  0  0  0
  1  2  3  0
  2  3  1  0
  3  4  2  0
  4  5  1  0
  5  6  1  0
  6  7  1  0
  7  8  1  0
  8  9  1  0
  9 10  1  0
 10 11  1  0
 11 12  1  0
 11 13  1  0
  6 14  1  0
 14 15  1  0
 15 16  2  0
 16 17  1  0
 17 18  2  0
 18 19  1  0
  5 20  2  0
 20 21  1  0
 21 22  2  0
 22  3  1  0
 13  9  1  0
 19 15  1  0
  4 23  1  0
  7 24  1  0
  7 25  1  0
  8 26  1  0
  8 27  1  0
  9 28  1  6
 10 29  1  0
 10 30  1  0
 11 31  1  1
 13 32  1  0
 13 33  1  0
 14 34  1  0
 14 35  1  0
 16 36  1  0
 17 37  1  0
 21 38  1  0
M  END
>  <meeko>  (1) 
{"is_sidechain": [false], "free_energy": -8.265, "intermolecular_energy": -11.164, "internal_energy": -0.779}

$$$$
ligand_53_conformer_2_docked
     RDKit          3D

 38 40  0  0  0  0  0  0  0  0999 V2000
   10.6750   47.6040   56.0960 N   0  0  0  0  0  0  0  0  0  0  0  0
   10.1520   47.3410   55.0980 C   0  0  0  0  0  0  0  0  0  0  0  0
    9.5040   47.0180   53.8570 C   0  0  0  0  0  0  0  0  0  0  0  0
    8.1090   47.0280   53.7640 C   0  0  0  0  0  0  0  0  0  0  0  0
    7.5120   46.7280   52.5250 C   0  0  0  0  0  0  0  0  0  0  0  0
    6.0720   46.7460   52.3480 N   0  0  0  0  0  0  0  0  0  0  0  0
    5.4080   45.9490   51.3000 C   0  0  0  0  0  0  0  0  0  0  0  0
    5.5890   44.4400   51.5740 C   0  0  0  0  0  0  0  0  0  0  0  0
    5.4260   43.4920   50.3590 C   0  0  1  0  0  0  0  0  0  0  0  0
    6.7280   42.9970   49.7300 C   0  0  0  0  0  0  0  0  0  0  0  0
    6.3310   41.5630   50.0610 C   0  0  2  0  0  0  0  0  0  0  0  0
    6.1310   40.8000   48.9230 F   0  0  0  0  0  0  0  0  0  0  0  0
    5.0180   42.0500   50.6630 C   0  0  0  0  0  0  0  0  0  0  0  0
    5.2300   47.4980   53.2900 C   0  0  0  0  0  0  0  0  0  0  0  0
    4.1580   46.6140   53.8470 C   0  0  0  0  0  0  0  0  0  0  0  0
    2.8400   46.5160   53.4250 C   0  0  0  0  0  0  0  0  0  0  0  0
    2.0650   45.6550   54.2290 C   0  0  0  0  0  0  0  0  0  0  0  0
    2.7050   45.0740   55.2780 N   0  0  0  0  0  0  0  0  0  0  0  0
    4.2630   45.6470   55.1990 S   0  0  0  0  0  0  0  0  0  0  0  0
    8.3170   46.4250   51.4690 N   0  0  0  0  0  0  0  0  0  0  0  0
    9.6690   46.4090   51.5840 C   0  0  0  0  0  0  0  0  0  0  0  0
   10.2550   46.7100   52.7690 N   0  0  0  0  0  0  0  0  0  0  0  0
    7.4901   47.2656   54.6418 H   0  0  0  0  0  0  0  0  0  0  0  0
    4.3345   46.1888   51.2880 H   0  0  0  0  0  0  0  0  0  0  0  0
    5.8608   46.1914   50.3273 H   0  0  0  0  0  0  0  0  0  0  0  0
    6.6011   44.2930   51.9791 H   0  0  0  0  0  0  0  0  0  0  0  0
    4.7766   44.1701   52.2647 H   0  0  0  0  0  0  0  0  0  0  0  0
    4.7419   44.1413   49.7929 H   0  0  0  0  0  0  0  0  0  0  0  0
    6.8150   43.2032   48.6530 H   0  0  0  0  0  0  0  0  0  0  0  0
    7.6974   43.3998   50.0587 H   0  0  0  0  0  0  0  0  0  0  0  0
    7.0065   40.9203   50.6447 H   0  0  0  0  0  0  0  0  0  0  0  0
    4.1216   41.7118   50.1226 H   0  0  0  0  0  0  0  0  0  0  0  0
    4.7242   41.7535   51.6807 H   0  0  0  0  0  0  0  0  0  0  0  0
    5.8541   47.8749   54.1137 H   0  0  0  0  0  0  0  0  0  0  0  0
    4.7606   48.3388   52.7583 H   0  0  0  0  0  0  0  0  0  0  0  0
    2.4407   47.0545   52.5529 H   0  0  0  0  0  0  0  0  0  0  0  0
    1.0022   45.4642   54.0191 H   0  0  0  0  0  0  0  0  0  0  0  0
   10.2908   46.1513   50.7140 H   0  0  0  0  0  0  0  0  0  0  0  0
  1  2  3  0
  2  3  1  0
  3  4  2  0
  4  5  1  0
  5  6  1  0
  6  7  1  0
  7  8  1  0
  8  9  1  0
  9 10  1  0
 10 11  1  0
 11 12  1  0
 11 13  1  0
  6 14  1  0
 14 15  1  0
 15 16  2  0
 16 17  1  0
 17 18  2  0
 18 19  1  0
  5 20  2  0
 20 21  1  0
 21 22  2  0
 22  3  1  0
 13  9  1  0
 19 15  1  0
  4 23  1  0
  7 24  1  0
  7 25  1  0
  8 26  1  0
  8 27  1  0
  9 28  1  6
 10 29  1  0
 10 30  1  0
 11 31  1  1
 13 32  1  0
 13 33  1  0
 14 34  1  0
 14 35  1  0
 16 36  1  0
 17 37  1  0
 21 38  1  0
M  END
>  <meeko>  (2) 
{"is_sidechain": [false], "free_energy": -7.958, "intermolecular_energy": -11.034, "internal_energy": -0.494}

$$$$
ligand_53_conformer_2_docked
     RDKit          3D

 38 40  0  0  0  0  0  0  0  0999 V2000
    3.7800   40.7930   50.4040 N   0  0  0  0  0  0  0  0  0  0  0  0
    4.4410   41.7390   50.4910 C   0  0  0  0  0  0  0  0  0  0  0  0
    5.2650   42.9110   50.5990 C   0  0  0  0  0  0  0  0  0  0  0  0
    5.0760   43.8140   51.6480 C   0  0  0  0  0  0  0  0  0  0  0  0
    5.9180   44.9400   51.7330 C   0  0  0  0  0  0  0  0  0  0  0  0
    5.7960   45.9050   52.8090 N   0  0  0  0  0  0  0  0  0  0  0  0
    6.8040   46.0060   53.8790 C   0  0  0  0  0  0  0  0  0  0  0  0
    7.4460   47.4110   53.8850 C   0  0  0  0  0  0  0  0  0  0  0  0
    8.9030   47.5090   53.3680 C   0  0  1  0  0  0  0  0  0  0  0  0
    9.7340   46.2320   53.4920 C   0  0  0  0  0  0  0  0  0  0  0  0
    9.8990   46.2040   51.9770 C   0  0  2  0  0  0  0  0  0  0  0  0
   11.2190   46.3730   51.5920 F   0  0  0  0  0  0  0  0  0  0  0  0
    9.0970   47.4940   51.8510 C   0  0  0  0  0  0  0  0  0  0  0  0
    4.6950   46.8790   52.7940 C   0  0  0  0  0  0  0  0  0  0  0  0
    3.5280   46.3560   53.5710 C   0  0  0  0  0  0  0  0  0  0  0  0
    3.5200   45.9070   54.8840 C   0  0  0  0  0  0  0  0  0  0  0  0
    2.2710   45.3890   55.2820 C   0  0  0  0  0  0  0  0  0  0  0  0
    1.2890   45.3940   54.3420 N   0  0  0  0  0  0  0  0  0  0  0  0
    1.9960   46.0560   52.9910 S   0  0  0  0  0  0  0  0  0  0  0  0
    6.8740   45.1110   50.7790 N   0  0  0  0  0  0  0  0  0  0  0  0
    7.0340   44.2280   49.7610 C   0  0  0  0  0  0  0  0  0  0  0  0
    6.2370   43.1330   49.6780 N   0  0  0  0  0  0  0  0  0  0  0  0
    4.2844   43.6488   52.3937 H   0  0  0  0  0  0  0  0  0  0  0  0
    6.3206   45.8245   54.8503 H   0  0  0  0  0  0  0  0  0  0  0  0
    7.5890   45.2564   53.7008 H   0  0  0  0  0  0  0  0  0  0  0  0
    6.8239   48.0651   53.2563 H   0  0  0  0  0  0  0  0  0  0  0  0
    7.4933   47.7042   54.9441 H   0  0  0  0  0  0  0  0  0  0  0  0
    9.1707   48.4096   53.9400 H   0  0  0  0  0  0  0  0  0  0  0  0
   10.6760   46.3595   54.0455 H   0  0  0  0  0  0  0  0  0  0  0  0
    9.3390   45.3567   54.0286 H   0  0  0  0  0  0  0  0  0  0  0  0
    9.6107   45.3107   51.4036 H   0  0  0  0  0  0  0  0  0  0  0  0
    9.6730   48.3465   51.4619 H   0  0  0  0  0  0  0  0  0  0  0  0
    8.2313   47.5517   51.1749 H   0  0  0  0  0  0  0  0  0  0  0  0
    5.0383   47.8216   53.2453 H   0  0  0  0  0  0  0  0  0  0  0  0
    4.3836   47.0509   51.7531 H   0  0  0  0  0  0  0  0  0  0  0  0
    4.3976   45.9508   55.5457 H   0  0  0  0  0  0  0  0  0  0  0  0
    2.1003   45.0020   56.2974 H   0  0  0  0  0  0  0  0  0  0  0  0
    7.8111   44.4003   49.0018 H   0  0  0  0  0  0  0  0  0  0  0  0
  1  2  3  0
  2  3  1  0
  3  4  2  0
  4  5  1  0
  5  6  1  0
  6  7  1  0
  7  8  1  0
  8  9  1  0
  9 10  1  0
 10 11  1  0
 11 12  1  0
 11 13  1  0
  6 14  1  0
 14 15  1  0
 15 16  2  0
 16 17  1  0
 17 18  2  0
 18 19  1  0
  5 20  2  0
 20 21  1  0
 21 22  2  0
 22  3  1  0
 13  9  1  0
 19 15  1  0
  4 23  1  0
  7 24  1  0
  7 25  1  0
  8 26  1  0
  8 27  1  0
  9 28  1  1
 10 29  1  0
 10 30  1  0
 11 31  1  6
 13 32  1  0
 13 33  1  0
 14 34  1  0
 14 35  1  0
 16 36  1  0
 17 37  1  0
 21 38  1  0
M  END
>  <meeko>  (3) 
{"is_sidechain": [false], "free_energy": -7.926, "intermolecular_energy": -10.733, "internal_energy": -0.751}

$$$$
ligand_53_conformer_2_docked
     RDKit          3D

 38 40  0  0  0  0  0  0  0  0999 V2000
    0.4110   42.8010   53.5020 N   0  0  0  0  0  0  0  0  0  0  0  0
    1.2870   43.5240   53.7210 C   0  0  0  0  0  0  0  0  0  0  0  0
    2.3740   44.4250   53.9920 C   0  0  0  0  0  0  0  0  0  0  0  0
    3.4150   44.5740   53.0720 C   0  0  0  0  0  0  0  0  0  0  0  0
    4.4500   45.4830   53.3630 C   0  0  0  0  0  0  0  0  0  0  0  0
    5.5490   45.7080   52.4430 N   0  0  0  0  0  0  0  0  0  0  0  0
    6.9200   45.9640   52.9190 C   0  0  0  0  0  0  0  0  0  0  0  0
    7.4220   47.3330   52.4100 C   0  0  0  0  0  0  0  0  0  0  0  0
    8.7490   47.8530   53.0160 C   0  0  1  0  0  0  0  0  0  0  0  0
    8.7710   47.9900   54.5380 C   0  0  0  0  0  0  0  0  0  0  0  0
    9.9060   46.9760   54.6050 C   0  0  2  0  0  0  0  0  0  0  0  0
   11.0790   47.5350   55.0850 F   0  0  0  0  0  0  0  0  0  0  0  0
    9.9090   46.8570   53.0850 C   0  0  0  0  0  0  0  0  0  0  0  0
    5.3250   45.5870   50.9940 C   0  0  0  0  0  0  0  0  0  0  0  0
    6.0590   44.4000   50.4530 C   0  0  0  0  0  0  0  0  0  0  0  0
    7.2560   44.3950   49.7520 C   0  0  0  0  0  0  0  0  0  0  0  0
    7.6260   43.1110   49.3010 C   0  0  0  0  0  0  0  0  0  0  0  0
    6.7700   42.0980   49.6020 N   0  0  0  0  0  0  0  0  0  0  0  0
    5.5320   42.8200   50.4430 S   0  0  0  0  0  0  0  0  0  0  0  0
    4.4030   46.1700   54.5370 N   0  0  0  0  0  0  0  0  0  0  0  0
    3.3880   46.0020   55.4230 C   0  0  0  0  0  0  0  0  0  0  0  0
    2.3790   45.1390   55.1460 N   0  0  0  0  0  0  0  0  0  0  0  0
    3.4257   43.9924   52.1384 H   0  0  0  0  0  0  0  0  0  0  0  0
    6.9277   45.9617   54.0190 H   0  0  0  0  0  0  0  0  0  0  0  0
    7.5836   45.1758   52.5337 H   0  0  0  0  0  0  0  0  0  0  0  0
    7.5602   47.2543   51.3216 H   0  0  0  0  0  0  0  0  0  0  0  0
    6.6561   48.0579   52.7230 H   0  0  0  0  0  0  0  0  0  0  0  0
    8.8327   48.7413   52.3726 H   0  0  0  0  0  0  0  0  0  0  0  0
    9.0426   48.9941   54.8958 H   0  0  0  0  0  0  0  0  0  0  0  0
    7.8533   47.8421   55.1262 H   0  0  0  0  0  0  0  0  0  0  0  0
    9.8120   46.0784   55.2339 H   0  0  0  0  0  0  0  0  0  0  0  0
   10.8349   47.2096   52.6071 H   0  0  0  0  0  0  0  0  0  0  0  0
    9.8323   45.8728   52.5997 H   0  0  0  0  0  0  0  0  0  0  0  0
    4.2486   45.4667   50.8019 H   0  0  0  0  0  0  0  0  0  0  0  0
    5.6969   46.4951   50.4970 H   0  0  0  0  0  0  0  0  0  0  0  0
    7.8547   45.2991   49.5670 H   0  0  0  0  0  0  0  0  0  0  0  0
    8.5548   42.9386   48.7374 H   0  0  0  0  0  0  0  0  0  0  0  0
    3.3840   46.5667   56.3670 H   0  0  0  0  0  0  0  0  0  0  0  0
  1  2  3  0
  2  3  1  0
  3  4  2  0
  4  5  1  0
  5  6  1  0
  6  7  1  0
  7  8  1  0
  8  9  1  0
  9 10  1  0
 10 11  1  0
 11 12  1  0
 11 13  1  0
  6 14  1  0
 14 15  1  0
 15 16  2  0
 16 17  1  0
 17 18  2  0
 18 19  1  0
  5 20  2  0
 20 21  1  0
 21 22  2  0
 22  3  1  0
 13  9  1  0
 19 15  1  0
  4 23  1  0
  7 24  1  0
  7 25  1  0
  8 26  1  0
  8 27  1  0
  9 28  1  6
 10 29  1  0
 10 30  1  0
 11 31  1  1
 13 32  1  0
 13 33  1  0
 14 34  1  0
 14 35  1  0
 16 36  1  0
 17 37  1  0
 21 38  1  0
M  END
>  <meeko>  (4) 
{"is_sidechain": [false], "free_energy": -7.825, "intermolecular_energy": -10.618, "internal_energy": -0.731}

$$$$
ligand_53_conformer_2_docked
     RDKit          3D

 38 40  0  0  0  0  0  0  0  0999 V2000
    0.6670   45.3870   57.1460 N   0  0  0  0  0  0  0  0  0  0  0  0
    1.1270   45.0510   56.1390 C   0  0  0  0  0  0  0  0  0  0  0  0
    1.6990   44.6300   54.8890 C   0  0  0  0  0  0  0  0  0  0  0  0
    2.8360   45.2670   54.3820 C   0  0  0  0  0  0  0  0  0  0  0  0
    3.3800   44.8120   53.1660 C   0  0  0  0  0  0  0  0  0  0  0  0
    4.5720   45.4070   52.5940 N   0  0  0  0  0  0  0  0  0  0  0  0
    5.7280   45.7880   53.4270 C   0  0  0  0  0  0  0  0  0  0  0  0
    6.2200   47.2030   53.0530 C   0  0  0  0  0  0  0  0  0  0  0  0
    7.7430   47.4590   53.1700 C   0  0  1  0  0  0  0  0  0  0  0  0
    8.6170   46.2100   53.2680 C   0  0  0  0  0  0  0  0  0  0  0  0
    9.3190   46.6100   51.9760 C   0  0  2  0  0  0  0  0  0  0  0  0
   10.6590   46.8970   52.1770 F   0  0  0  0  0  0  0  0  0  0  0  0
    8.4700   47.8740   51.8900 C   0  0  0  0  0  0  0  0  0  0  0  0
    4.6870   45.5520   51.1350 C   0  0  0  0  0  0  0  0  0  0  0  0
    5.7250   44.6160   50.5990 C   0  0  0  0  0  0  0  0  0  0  0  0
    6.9490   44.9430   50.0350 C   0  0  0  0  0  0  0  0  0  0  0  0
    7.6470   43.8220   49.5430 C   0  0  0  0  0  0  0  0  0  0  0  0
    7.0280   42.6200   49.6790 N   0  0  0  0  0  0  0  0  0  0  0  0
    5.5850   42.9650   50.4260 S   0  0  0  0  0  0  0  0  0  0  0  0
    2.7680   43.7790   52.5240 N   0  0  0  0  0  0  0  0  0  0  0  0
    1.6580   43.1820   53.0280 C   0  0  0  0  0  0  0  0  0  0  0  0
    1.1340   43.6030   54.2060 N   0  0  0  0  0  0  0  0  0  0  0  0
    3.2962   46.1071   54.9228 H   0  0  0  0  0  0  0  0  0  0  0  0
    5.4309   45.7760   54.4860 H   0  0  0  0  0  0  0  0  0  0  0  0
    6.5434   45.0702   53.2542 H   0  0  0  0  0  0  0  0  0  0  0  0
    5.9284   47.3931   52.0095 H   0  0  0  0  0  0  0  0  0  0  0  0
    5.7545   47.8765   53.7877 H   0  0  0  0  0  0  0  0  0  0  0  0
    7.6794   48.1648   54.0113 H   0  0  0  0  0  0  0  0  0  0  0  0
    9.2744   46.1885   54.1497 H   0  0  0  0  0  0  0  0  0  0  0  0
    8.1606   45.2145   53.3717 H   0  0  0  0  0  0  0  0  0  0  0  0
    9.3641   45.9101   51.1286 H   0  0  0  0  0  0  0  0  0  0  0  0
    9.0429   48.8087   51.9798 H   0  0  0  0  0  0  0  0  0  0  0  0
    7.9053   48.1088   50.9757 H   0  0  0  0  0  0  0  0  0  0  0  0
    3.7169   45.3224   50.6701 H   0  0  0  0  0  0  0  0  0  0  0  0
    4.9825   46.5853   50.9008 H   0  0  0  0  0  0  0  0  0  0  0  0
    7.3352   45.9714   49.9776 H   0  0  0  0  0  0  0  0  0  0  0  0
    8.6380   43.9149   49.0748 H   0  0  0  0  0  0  0  0  0  0  0  0
    1.1826   42.3552   52.4800 H   0  0  0  0  0  0  0  0  0  0  0  0
  1  2  3  0
  2  3  1  0
  3  4  2  0
  4  5  1  0
  5  6  1  0
  6  7  1  0
  7  8  1  0
  8  9  1  0
  9 10  1  0
 10 11  1  0
 11 12  1  0
 11 13  1  0
  6 14  1  0
 14 15  1  0
 15 16  2  0
 16 17  1  0
 17 18  2  0
 18 19  1  0
  5 20  2  0
 20 21  1  0
 21 22  2  0
 22  3  1  0
 13  9  1  0
 19 15  1  0
  4 23  1  0
  7 24  1  0
  7 25  1  0
  8 26  1  0
  8 27  1  0
  9 28  1  1
 10 29  1  0
 10 30  1  0
 11 31  1  6
 13 32  1  0
 13 33  1  0
 14 34  1  0
 14 35  1  0
 16 36  1  0
 17 37  1  0
 21 38  1  0
M  END
>  <meeko>  (5) 
{"is_sidechain": [false], "free_energy": -7.548, "intermolecular_energy": -10.042, "internal_energy": -0.933}

$$$$
