ligand_23_conformer_1_docked
     RDKit          3D

 45 47  0  0  0  0  0  0  0  0999 V2000
    0.1170   41.5780   53.7860 C   0  0  0  0  0  0  0  0  0  0  0  0
   -0.1060   42.5350   52.6010 C   0  0  2  0  0  0  0  0  0  0  0  0
    1.0820   43.3730   52.4090 N   0  0  0  0  0  0  0  0  0  0  0  0
    2.0110   43.1510   51.3330 C   0  0  0  0  0  0  0  0  0  0  0  0
    1.7390   42.3010   50.4420 O   0  0  0  0  0  0  0  0  0  0  0  0
    3.2800   43.9130   51.2430 C   0  0  0  0  0  0  0  0  0  0  0  0
    4.5250   43.2570   51.2020 C   0  0  0  0  0  0  0  0  0  0  0  0
    5.7100   43.9920   51.0980 C   0  0  0  0  0  0  0  0  0  0  0  0
    5.6750   45.3870   51.0080 C   0  0  0  0  0  0  0  0  0  0  0  0
    6.8870   46.0890   50.9110 O   0  0  0  0  0  0  0  0  0  0  0  0
    7.7270   46.4060   51.9870 C   0  0  0  0  0  0  0  0  0  0  0  0
    9.1120   46.4370   51.7750 C   0  0  0  0  0  0  0  0  0  0  0  0
    9.9790   46.7620   52.8220 C   0  0  0  0  0  0  0  0  0  0  0  0
    9.4680   47.0750   54.0860 C   0  0  0  0  0  0  0  0  0  0  0  0
   10.5580   47.4910   55.3960 Cl  0  0  0  0  0  0  0  0  0  0  0  0
    8.0870   47.0700   54.3000 C   0  0  0  0  0  0  0  0  0  0  0  0
    7.2170   46.7430   53.2550 C   0  0  0  0  0  0  0  0  0  0  0  0
    4.4380   46.0480   51.0590 C   0  0  0  0  0  0  0  0  0  0  0  0
    3.2510   45.3180   51.1650 C   0  0  0  0  0  0  0  0  0  0  0  0
   -1.3760   43.4290   52.7300 C   0  0  2  0  0  0  0  0  0  0  0  0
   -2.0720   43.7250   51.4030 C   0  0  0  0  0  0  0  0  0  0  0  0
   -2.0020   45.2370   51.2260 C   0  0  0  0  0  0  0  0  0  0  0  0
   -1.1270   45.7900   52.2600 N   0  0  0  0  0  0  0  0  0  0  0  0
   -1.0880   44.8030   53.3370 C   0  0  0  0  0  0  0  0  0  0  0  0
   -0.0111   42.1276   54.7302 H   0  0  0  0  0  0  0  0  0  0  0  0
   -0.6140   40.7575   53.7373 H   0  0  0  0  0  0  0  0  0  0  0  0
    1.1354   41.1651   53.7373 H   0  0  0  0  0  0  0  0  0  0  0  0
   -0.2767   41.8970   51.7214 H   0  0  0  0  0  0  0  0  0  0  0  0
    1.1910   44.2220   53.0080 H   0  0  0  0  0  0  0  0  0  0  0  0
    4.5658   42.1589   51.2521 H   0  0  0  0  0  0  0  0  0  0  0  0
    6.6775   43.4686   51.0869 H   0  0  0  0  0  0  0  0  0  0  0  0
    9.5187   46.2044   50.7798 H   0  0  0  0  0  0  0  0  0  0  0  0
   11.0657   46.7717   52.6517 H   0  0  0  0  0  0  0  0  0  0  0  0
    7.6838   47.3236   55.2915 H   0  0  0  0  0  0  0  0  0  0  0  0
    6.1302   46.7492   53.4246 H   0  0  0  0  0  0  0  0  0  0  0  0
    4.4026   47.1466   51.0153 H   0  0  0  0  0  0  0  0  0  0  0  0
    2.2862   45.8458   51.1877 H   0  0  0  0  0  0  0  0  0  0  0  0
   -2.0194   42.8197   53.3818 H   0  0  0  0  0  0  0  0  0  0  0  0
   -1.5525   43.2181   50.5765 H   0  0  0  0  0  0  0  0  0  0  0  0
   -3.1113   43.3648   51.4016 H   0  0  0  0  0  0  0  0  0  0  0  0
   -1.5963   45.4749   50.2316 H   0  0  0  0  0  0  0  0  0  0  0  0
   -3.0085   45.6719   51.3147 H   0  0  0  0  0  0  0  0  0  0  0  0
   -0.1630   45.8730   51.8590 H   0  0  0  0  0  0  0  0  0  0  0  0
   -0.0934   44.8024   53.8069 H   0  0  0  0  0  0  0  0  0  0  0  0
   -1.8370   45.0459   54.1051 H   0  0  0  0  0  0  0  0  0  0  0  0
  1  2  1  0
  2  3  1  0
  3  4  1  0
  4  5  2  0
  4  6  1  0
  6  7  2  0
  7  8  1  0
  8  9  2  0
  9 10  1  0
 10 11  1  0
 11 12  2  0
 12 13  1  0
 13 14  2  0
 14 15  1  0
 14 16  1  0
 16 17  2  0
  9 18  1  0
 18 19  2  0
  2 20  1  0
 20 21  1  0
 21 22  1  0
 22 23  1  0
 23 24  1  0
 19  6  1  0
 24 20  1  0
 17 11  1  0
  1 25  1  0
  1 26  1  0
  1 27  1  0
  2 28  1  6
  3 29  1  0
  7 30  1  0
  8 31  1  0
 12 32  1  0
 13 33  1  0
 16 34  1  0
 17 35  1  0
 18 36  1  0
 19 37  1  0
 20 38  1  1
 21 39  1  0
 21 40  1  0
 22 41  1  0
 22 42  1  0
 23 43  1  0
 24 44  1  0
 24 45  1  0
M  END
>  <meeko>  (1) 
{"is_sidechain": [false], "free_energy": -8.613, "intermolecular_energy": -11.13, "internal_energy": -1.023}

$$$$
ligand_23_conformer_1_docked
     RDKit          3D

 45 47  0  0  0  0  0  0  0  0999 V2000
   -0.1590   42.0470   53.4480 C   0  0  0  0  0  0  0  0  0  0  0  0
   -0.3340   43.4380   52.8140 C   0  0  2  0  0  0  0  0  0  0  0  0
    0.9810   44.0370   52.5580 N   0  0  0  0  0  0  0  0  0  0  0  0
    1.7440   43.7340   51.3770 C   0  0  0  0  0  0  0  0  0  0  0  0
    1.2240   43.0420   50.4600 O   0  0  0  0  0  0  0  0  0  0  0  0
    3.1310   44.2330   51.2090 C   0  0  0  0  0  0  0  0  0  0  0  0
    3.3950   45.5990   50.9950 C   0  0  0  0  0  0  0  0  0  0  0  0
    4.7100   46.0540   50.8570 C   0  0  0  0  0  0  0  0  0  0  0  0
    5.7840   45.1630   50.9540 C   0  0  0  0  0  0  0  0  0  0  0  0
    7.0880   45.6570   50.8040 O   0  0  0  0  0  0  0  0  0  0  0  0
    7.9080   46.1100   51.8480 C   0  0  0  0  0  0  0  0  0  0  0  0
    7.3430   46.2970   53.1160 C   0  0  0  0  0  0  0  0  0  0  0  0
    8.1330   46.7350   54.1840 C   0  0  0  0  0  0  0  0  0  0  0  0
    9.4980   46.9730   53.9950 C   0  0  0  0  0  0  0  0  0  0  0  0
   10.4890   47.5140   55.3380 Cl  0  0  0  0  0  0  0  0  0  0  0  0
   10.0750   46.7650   52.7390 C   0  0  0  0  0  0  0  0  0  0  0  0
    9.2870   46.3300   51.6690 C   0  0  0  0  0  0  0  0  0  0  0  0
    5.5260   43.7980   51.1570 C   0  0  0  0  0  0  0  0  0  0  0  0
    4.2130   43.3390   51.2930 C   0  0  0  0  0  0  0  0  0  0  0  0
   -1.2140   44.4170   53.6470 C   0  0  2  0  0  0  0  0  0  0  0  0
   -0.6690   44.7190   55.0420 C   0  0  0  0  0  0  0  0  0  0  0  0
   -1.7210   44.2080   56.0190 C   0  0  0  0  0  0  0  0  0  0  0  0
   -2.7230   43.4470   55.2720 N   0  0  0  0  0  0  0  0  0  0  0  0
   -2.6330   43.8990   53.8860 C   0  0  0  0  0  0  0  0  0  0  0  0
   -0.1706   42.1395   54.5440 H   0  0  0  0  0  0  0  0  0  0  0  0
   -0.9817   41.3914   53.1266 H   0  0  0  0  0  0  0  0  0  0  0  0
    0.8005   41.6156   53.1266 H   0  0  0  0  0  0  0  0  0  0  0  0
   -0.8771   43.2761   51.8712 H   0  0  0  0  0  0  0  0  0  0  0  0
    1.3170   44.7870   53.2030 H   0  0  0  0  0  0  0  0  0  0  0  0
    2.5609   46.3137   50.9359 H   0  0  0  0  0  0  0  0  0  0  0  0
    4.9014   47.1211   50.6707 H   0  0  0  0  0  0  0  0  0  0  0  0
    6.2725   46.0984   53.2727 H   0  0  0  0  0  0  0  0  0  0  0  0
    7.6799   46.8925   55.1739 H   0  0  0  0  0  0  0  0  0  0  0  0
   11.1504   46.9438   52.5921 H   0  0  0  0  0  0  0  0  0  0  0  0
    9.7461   46.1591   50.6841 H   0  0  0  0  0  0  0  0  0  0  0  0
    6.3624   43.0854   51.2093 H   0  0  0  0  0  0  0  0  0  0  0  0
    4.0244   42.2694   51.4672 H   0  0  0  0  0  0  0  0  0  0  0  0
   -1.2067   45.3204   53.0194 H   0  0  0  0  0  0  0  0  0  0  0  0
    0.2865   44.1978   55.2009 H   0  0  0  0  0  0  0  0  0  0  0  0
   -0.4786   45.7938   55.1781 H   0  0  0  0  0  0  0  0  0  0  0  0
   -1.2457   43.5584   56.7687 H   0  0  0  0  0  0  0  0  0  0  0  0
   -2.1992   45.0551   56.5326 H   0  0  0  0  0  0  0  0  0  0  0  0
   -2.4530   42.4360   55.3040 H   0  0  0  0  0  0  0  0  0  0  0  0
   -2.8434   43.0605   53.2058 H   0  0  0  0  0  0  0  0  0  0  0  0
   -3.3669   44.6961   53.6964 H   0  0  0  0  0  0  0  0  0  0  0  0
  1  2  1  0
  2  3  1  0
  3  4  1  0
  4  5  2  0
  4  6  1  0
  6  7  2  0
  7  8  1  0
  8  9  2  0
  9 10  1  0
 10 11  1  0
 11 12  2  0
 12 13  1  0
 13 14  2  0
 14 15  1  0
 14 16  1  0
 16 17  2  0
  9 18  1  0
 18 19  2  0
  2 20  1  0
 20 21  1  0
 21 22  1  0
 22 23  1  0
 23 24  1  0
 19  6  1  0
 24 20  1  0
 17 11  1  0
  1 25  1  0
  1 26  1  0
  1 27  1  0
  2 28  1  6
  3 29  1  0
  7 30  1  0
  8 31  1  0
 12 32  1  0
 13 33  1  0
 16 34  1  0
 17 35  1  0
 18 36  1  0
 19 37  1  0
 20 38  1  6
 21 39  1  0
 21 40  1  0
 22 41  1  0
 22 42  1  0
 23 43  1  0
 24 44  1  0
 24 45  1  0
M  END
>  <meeko>  (2) 
{"is_sidechain": [false], "free_energy": -8.322, "intermolecular_energy": -11.163, "internal_energy": -0.615}

$$$$
ligand_23_conformer_1_docked
     RDKit          3D

 45 47  0  0  0  0  0  0  0  0999 V2000
    3.3010   39.9310   48.9030 C   0  0  0  0  0  0  0  0  0  0  0  0
    4.2320   40.4130   47.7770 C   0  0  2  0  0  0  0  0  0  0  0  0
    4.8420   41.6940   48.1520 N   0  0  0  0  0  0  0  0  0  0  0  0
    5.9130   41.7810   49.1080 C   0  0  0  0  0  0  0  0  0  0  0  0
    6.4450   40.7250   49.5460 O   0  0  0  0  0  0  0  0  0  0  0  0
    6.4150   43.0950   49.5820 C   0  0  0  0  0  0  0  0  0  0  0  0
    5.6120   43.9440   50.3650 C   0  0  0  0  0  0  0  0  0  0  0  0
    6.1080   45.1700   50.8190 C   0  0  0  0  0  0  0  0  0  0  0  0
    7.4180   45.5590   50.5230 C   0  0  0  0  0  0  0  0  0  0  0  0
    7.8780   46.8000   50.9910 O   0  0  0  0  0  0  0  0  0  0  0  0
    8.5860   47.0030   52.1840 C   0  0  0  0  0  0  0  0  0  0  0  0
    7.9170   47.5690   53.2770 C   0  0  0  0  0  0  0  0  0  0  0  0
    8.5880   47.7740   54.4860 C   0  0  0  0  0  0  0  0  0  0  0  0
    9.9290   47.3980   54.6180 C   0  0  0  0  0  0  0  0  0  0  0  0
   10.7660   47.6490   56.1390 Cl  0  0  0  0  0  0  0  0  0  0  0  0
   10.5970   46.8100   53.5400 C   0  0  0  0  0  0  0  0  0  0  0  0
    9.9290   46.6070   52.3280 C   0  0  0  0  0  0  0  0  0  0  0  0
    8.2220   44.7210   49.7330 C   0  0  0  0  0  0  0  0  0  0  0  0
    7.7280   43.4960   49.2760 C   0  0  0  0  0  0  0  0  0  0  0  0
    3.5450   40.5360   46.3850 C   0  0  2  0  0  0  0  0  0  0  0  0
    3.1100   39.2020   45.7800 C   0  0  0  0  0  0  0  0  0  0  0  0
    3.9020   39.0560   44.4860 C   0  0  0  0  0  0  0  0  0  0  0  0
    4.9080   40.1160   44.4300 N   0  0  0  0  0  0  0  0  0  0  0  0
    4.4410   41.1740   45.3220 C   0  0  0  0  0  0  0  0  0  0  0  0
    3.7532   40.1651   49.8781 H   0  0  0  0  0  0  0  0  0  0  0  0
    2.3292   40.4392   48.8180 H   0  0  0  0  0  0  0  0  0  0  0  0
    3.1550   38.8440   48.8180 H   0  0  0  0  0  0  0  0  0  0  0  0
    5.0008   39.6346   47.6630 H   0  0  0  0  0  0  0  0  0  0  0  0
    4.5610   42.5490   47.6230 H   0  0  0  0  0  0  0  0  0  0  0  0
    4.5862   43.6412   50.6221 H   0  0  0  0  0  0  0  0  0  0  0  0
    5.4627   45.8335   51.4135 H   0  0  0  0  0  0  0  0  0  0  0  0
    6.8586   47.8535   53.1834 H   0  0  0  0  0  0  0  0  0  0  0  0
    8.0604   48.2320   55.3356 H   0  0  0  0  0  0  0  0  0  0  0  0
   11.6491   46.5066   53.6450 H   0  0  0  0  0  0  0  0  0  0  0  0
   10.4551   46.1362   51.4844 H   0  0  0  0  0  0  0  0  0  0  0  0
    9.2451   45.0302   49.4728 H   0  0  0  0  0  0  0  0  0  0  0  0
    8.3717   42.8398   48.6718 H   0  0  0  0  0  0  0  0  0  0  0  0
    2.6726   41.1647   46.6165 H   0  0  0  0  0  0  0  0  0  0  0  0
    3.3431   38.3754   46.4673 H   0  0  0  0  0  0  0  0  0  0  0  0
    2.0257   39.1745   45.5968 H   0  0  0  0  0  0  0  0  0  0  0  0
    4.3973   38.0741   44.4639 H   0  0  0  0  0  0  0  0  0  0  0  0
    3.2260   39.1348   43.6218 H   0  0  0  0  0  0  0  0  0  0  0  0
    5.8030   39.7350   44.8160 H   0  0  0  0  0  0  0  0  0  0  0  0
    5.3009   41.6629   45.8033 H   0  0  0  0  0  0  0  0  0  0  0  0
    3.8804   41.9317   44.7549 H   0  0  0  0  0  0  0  0  0  0  0  0
  1  2  1  0
  2  3  1  0
  3  4  1  0
  4  5  2  0
  4  6  1  0
  6  7  2  0
  7  8  1  0
  8  9  2  0
  9 10  1  0
 10 11  1  0
 11 12  2  0
 12 13  1  0
 13 14  2  0
 14 15  1  0
 14 16  1  0
 16 17  2  0
  9 18  1  0
 18 19  2  0
  2 20  1  0
 20 21  1  0
 21 22  1  0
 22 23  1  0
 23 24  1  0
 19  6  1  0
 24 20  1  0
 17 11  1  0
  1 25  1  0
  1 26  1  0
  1 27  1  0
  2 28  1  6
  3 29  1  0
  7 30  1  0
  8 31  1  0
 12 32  1  0
 13 33  1  0
 16 34  1  0
 17 35  1  0
 18 36  1  0
 19 37  1  0
 20 38  1  1
 21 39  1  0
 21 40  1  0
 22 41  1  0
 22 42  1  0
 23 43  1  0
 24 44  1  0
 24 45  1  0
M  END
>  <meeko>  (3) 
{"is_sidechain": [false], "free_energy": -8.112, "intermolecular_energy": -10.863, "internal_energy": -0.643}

$$$$
ligand_23_conformer_1_docked
     RDKit          3D

 45 47  0  0  0  0  0  0  0  0999 V2000
   -2.4470   45.3100   55.1950 C   0  0  0  0  0  0  0  0  0  0  0  0
   -1.5440   44.5570   54.2020 C   0  0  2  0  0  0  0  0  0  0  0  0
   -0.3090   45.3180   53.9780 N   0  0  0  0  0  0  0  0  0  0  0  0
    0.9890   44.7010   54.0200 C   0  0  0  0  0  0  0  0  0  0  0  0
    1.0800   43.4470   54.1180 O   0  0  0  0  0  0  0  0  0  0  0  0
    2.2290   45.5120   53.9380 C   0  0  0  0  0  0  0  0  0  0  0  0
    3.2570   45.3730   54.8890 C   0  0  0  0  0  0  0  0  0  0  0  0
    4.4260   46.1330   54.7840 C   0  0  0  0  0  0  0  0  0  0  0  0
    4.6020   47.0240   53.7200 C   0  0  0  0  0  0  0  0  0  0  0  0
    5.7870   47.7720   53.6540 O   0  0  0  0  0  0  0  0  0  0  0  0
    7.0170   47.3010   53.1710 C   0  0  0  0  0  0  0  0  0  0  0  0
    7.0590   46.6960   51.9090 C   0  0  0  0  0  0  0  0  0  0  0  0
    8.2700   46.2280   51.3900 C   0  0  0  0  0  0  0  0  0  0  0  0
    9.4510   46.3750   52.1240 C   0  0  0  0  0  0  0  0  0  0  0  0
   10.9710   45.7940   51.4670 Cl  0  0  0  0  0  0  0  0  0  0  0  0
    9.4230   47.0000   53.3740 C   0  0  0  0  0  0  0  0  0  0  0  0
    8.2130   47.4670   53.8960 C   0  0  0  0  0  0  0  0  0  0  0  0
    3.5760   47.1750   52.7750 C   0  0  0  0  0  0  0  0  0  0  0  0
    2.4050   46.4190   52.8760 C   0  0  0  0  0  0  0  0  0  0  0  0
   -2.2230   44.2270   52.8400 C   0  0  2  0  0  0  0  0  0  0  0  0
   -1.8420   42.8660   52.2610 C   0  0  0  0  0  0  0  0  0  0  0  0
   -1.1500   43.1570   50.9350 C   0  0  0  0  0  0  0  0  0  0  0  0
   -0.9270   44.5990   50.8300 N   0  0  0  0  0  0  0  0  0  0  0  0
   -1.8830   45.2310   51.7360 C   0  0  0  0  0  0  0  0  0  0  0  0
   -2.1482   45.0608   56.2239 H   0  0  0  0  0  0  0  0  0  0  0  0
   -2.3439   46.3935   55.0354 H   0  0  0  0  0  0  0  0  0  0  0  0
   -3.4943   45.0139   55.0354 H   0  0  0  0  0  0  0  0  0  0  0  0
   -1.3226   43.5856   54.6683 H   0  0  0  0  0  0  0  0  0  0  0  0
   -0.3900   46.3120   53.6690 H   0  0  0  0  0  0  0  0  0  0  0  0
    3.1402   44.6620   55.7202 H   0  0  0  0  0  0  0  0  0  0  0  0
    5.2139   46.0294   55.5445 H   0  0  0  0  0  0  0  0  0  0  0  0
    6.1345   46.5883   51.3228 H   0  0  0  0  0  0  0  0  0  0  0  0
    8.2937   45.7434   50.4028 H   0  0  0  0  0  0  0  0  0  0  0  0
   10.3535   47.1245   53.9473 H   0  0  0  0  0  0  0  0  0  0  0  0
    8.1950   47.9658   54.8763 H   0  0  0  0  0  0  0  0  0  0  0  0
    3.6940   47.8927   51.9498 H   0  0  0  0  0  0  0  0  0  0  0  0
    1.6146   46.5336   52.1196 H   0  0  0  0  0  0  0  0  0  0  0  0
   -3.2901   44.2543   53.1055 H   0  0  0  0  0  0  0  0  0  0  0  0
   -1.1582   42.3380   52.9420 H   0  0  0  0  0  0  0  0  0  0  0  0
   -2.7241   42.2232   52.1244 H   0  0  0  0  0  0  0  0  0  0  0  0
   -0.1855   42.6294   50.8970 H   0  0  0  0  0  0  0  0  0  0  0  0
   -1.7784   42.8127   50.1003 H   0  0  0  0  0  0  0  0  0  0  0  0
    0.0380   44.8050   51.1800 H   0  0  0  0  0  0  0  0  0  0  0  0
   -1.4376   46.1347   52.1775 H   0  0  0  0  0  0  0  0  0  0  0  0
   -2.7927   45.5212   51.1899 H   0  0  0  0  0  0  0  0  0  0  0  0
  1  2  1  0
  2  3  1  0
  3  4  1  0
  4  5  2  0
  4  6  1  0
  6  7  2  0
  7  8  1  0
  8  9  2  0
  9 10  1  0
 10 11  1  0
 11 12  2  0
 12 13  1  0
 13 14  2  0
 14 15  1  0
 14 16  1  0
 16 17  2  0
  9 18  1  0
 18 19  2  0
  2 20  1  0
 20 21  1  0
 21 22  1  0
 22 23  1  0
 23 24  1  0
 19  6  1  0
 24 20  1  0
 17 11  1  0
  1 25  1  0
  1 26  1  0
  1 27  1  0
  2 28  1  1
  3 29  1  0
  7 30  1  0
  8 31  1  0
 12 32  1  0
 13 33  1  0
 16 34  1  0
 17 35  1  0
 18 36  1  0
 19 37  1  0
 20 38  1  1
 21 39  1  0
 21 40  1  0
 22 41  1  0
 22 42  1  0
 23 43  1  0
 24 44  1  0
 24 45  1  0
M  END
>  <meeko>  (4) 
{"is_sidechain": [false], "free_energy": -7.943, "intermolecular_energy": -10.137, "internal_energy": -1.152}

$$$$
ligand_23_conformer_1_docked
     RDKit          3D

 45 47  0  0  0  0  0  0  0  0999 V2000
   -1.3210   43.4390   54.0000 C   0  0  0  0  0  0  0  0  0  0  0  0
   -0.9740   44.8230   54.5740 C   0  0  2  0  0  0  0  0  0  0  0  0
    0.4050   45.1770   54.2180 N   0  0  0  0  0  0  0  0  0  0  0  0
    0.7920   45.4870   52.8680 C   0  0  0  0  0  0  0  0  0  0  0  0
   -0.0920   45.5940   51.9750 O   0  0  0  0  0  0  0  0  0  0  0  0
    2.2160   45.6970   52.5050 C   0  0  0  0  0  0  0  0  0  0  0  0
    2.9250   44.7450   51.7500 C   0  0  0  0  0  0  0  0  0  0  0  0
    4.2600   44.9690   51.4010 C   0  0  0  0  0  0  0  0  0  0  0  0
    4.9040   46.1530   51.7770 C   0  0  0  0  0  0  0  0  0  0  0  0
    6.2460   46.3370   51.4130 O   0  0  0  0  0  0  0  0  0  0  0  0
    7.2930   46.6250   52.3000 C   0  0  0  0  0  0  0  0  0  0  0  0
    7.0150   46.7000   53.6710 C   0  0  0  0  0  0  0  0  0  0  0  0
    8.0360   46.9710   54.5860 C   0  0  0  0  0  0  0  0  0  0  0  0
    9.3490   47.1540   54.1380 C   0  0  0  0  0  0  0  0  0  0  0  0
   10.6310   47.4870   55.2890 Cl  0  0  0  0  0  0  0  0  0  0  0  0
    9.6400   47.0580   52.7740 C   0  0  0  0  0  0  0  0  0  0  0  0
    8.6200   46.7890   51.8570 C   0  0  0  0  0  0  0  0  0  0  0  0
    4.2050   47.1010   52.5400 C   0  0  0  0  0  0  0  0  0  0  0  0
    2.8700   46.8810   52.8910 C   0  0  0  0  0  0  0  0  0  0  0  0
   -1.1780   44.9490   56.1130 C   0  0  2  0  0  0  0  0  0  0  0  0
   -2.6100   45.2760   56.5320 C   0  0  0  0  0  0  0  0  0  0  0  0
   -2.5370   46.6250   57.2380 C   0  0  0  0  0  0  0  0  0  0  0  0
   -1.1960   47.1770   57.0560 N   0  0  0  0  0  0  0  0  0  0  0  0
   -0.3230   46.0470   56.7480 C   0  0  0  0  0  0  0  0  0  0  0  0
   -1.4979   42.7336   54.8253 H   0  0  0  0  0  0  0  0  0  0  0  0
   -2.2278   43.5152   53.3821 H   0  0  0  0  0  0  0  0  0  0  0  0
   -0.4855   43.0783   53.3821 H   0  0  0  0  0  0  0  0  0  0  0  0
   -1.6856   45.5281   54.1197 H   0  0  0  0  0  0  0  0  0  0  0  0
    1.0950   45.3150   54.9900 H   0  0  0  0  0  0  0  0  0  0  0  0
    2.4255   43.8180   51.4321 H   0  0  0  0  0  0  0  0  0  0  0  0
    4.8086   44.2084   50.8262 H   0  0  0  0  0  0  0  0  0  0  0  0
    5.9867   46.5446   54.0295 H   0  0  0  0  0  0  0  0  0  0  0  0
    7.8072   47.0405   55.6597 H   0  0  0  0  0  0  0  0  0  0  0  0
   10.6732   47.1944   52.4219 H   0  0  0  0  0  0  0  0  0  0  0  0
    8.8544   46.7051   50.7855 H   0  0  0  0  0  0  0  0  0  0  0  0
    4.7107   48.0227   52.8638 H   0  0  0  0  0  0  0  0  0  0  0  0
    2.3267   47.6396   53.4735 H   0  0  0  0  0  0  0  0  0  0  0  0
   -0.8868   43.9481   56.4642 H   0  0  0  0  0  0  0  0  0  0  0  0
   -3.2625   45.3405   55.6488 H   0  0  0  0  0  0  0  0  0  0  0  0
   -3.0284   44.4977   57.1871 H   0  0  0  0  0  0  0  0  0  0  0  0
   -3.2811   47.3100   56.8054 H   0  0  0  0  0  0  0  0  0  0  0  0
   -2.7481   46.4989   58.3102 H   0  0  0  0  0  0  0  0  0  0  0  0
   -1.2150   47.8110   56.2220 H   0  0  0  0  0  0  0  0  0  0  0  0
    0.4620   46.3624   56.0450 H   0  0  0  0  0  0  0  0  0  0  0  0
    0.1583   45.6748   57.6644 H   0  0  0  0  0  0  0  0  0  0  0  0
  1  2  1  0
  2  3  1  0
  3  4  1  0
  4  5  2  0
  4  6  1  0
  6  7  2  0
  7  8  1  0
  8  9  2  0
  9 10  1  0
 10 11  1  0
 11 12  2  0
 12 13  1  0
 13 14  2  0
 14 15  1  0
 14 16  1  0
 16 17  2  0
  9 18  1  0
 18 19  2  0
  2 20  1  0
 20 21  1  0
 21 22  1  0
 22 23  1  0
 23 24  1  0
 19  6  1  0
 24 20  1  0
 17 11  1  0
  1 25  1  0
  1 26  1  0
  1 27  1  0
  2 28  1  6
  3 29  1  0
  7 30  1  0
  8 31  1  0
 12 32  1  0
 13 33  1  0
 16 34  1  0
 17 35  1  0
 18 36  1  0
 19 37  1  0
 20 38  1  1
 21 39  1  0
 21 40  1  0
 22 41  1  0
 22 42  1  0
 23 43  1  0
 24 44  1  0
 24 45  1  0
M  END
>  <meeko>  (5) 
{"is_sidechain": [false], "free_energy": -7.298, "intermolecular_energy": -10.261, "internal_energy": -0.194}

$$$$
