ligand_18_conformer_3_docked
     RDKit          3D

 40 43  0  0  0  0  0  0  0  0999 V2000
    2.0360   44.1920   50.8970 O   0  0  0  0  0  0  0  0  0  0  0  0
    2.8810   43.4740   51.4980 C   0  0  0  0  0  0  0  0  0  0  0  0
    2.4710   42.6950   52.6320 N   0  0  0  0  0  0  0  0  0  0  0  0
    1.2660   42.9590   53.3600 C   0  0  0  0  0  0  0  0  0  0  0  0
    0.1230   42.2620   53.1800 N   0  0  0  0  0  0  0  0  0  0  0  0
   -0.7740   42.7480   54.0350 N   0  0  0  0  0  0  0  0  0  0  0  0
   -0.1490   43.7230   54.7230 C   0  0  0  0  0  0  0  0  0  0  0  0
   -0.6860   44.4890   55.7540 C   0  0  0  0  0  0  0  0  0  0  0  0
    0.1630   45.4160   56.3810 C   0  0  0  0  0  0  0  0  0  0  0  0
    1.5080   45.5390   55.9760 C   0  0  0  0  0  0  0  0  0  0  0  0
    1.9920   44.7360   54.9320 C   0  0  0  0  0  0  0  0  0  0  0  0
    1.1250   43.8760   54.3340 N   0  0  0  0  0  0  0  0  0  0  0  0
    4.2750   43.4110   50.9980 C   0  0  0  0  0  0  0  0  0  0  0  0
    4.8170   42.1890   50.5630 C   0  0  0  0  0  0  0  0  0  0  0  0
    6.1260   42.1280   50.0780 C   0  0  0  0  0  0  0  0  0  0  0  0
    6.9090   43.2810   50.0250 C   0  0  0  0  0  0  0  0  0  0  0  0
    6.3960   44.5080   50.4650 C   0  0  0  0  0  0  0  0  0  0  0  0
    7.2100   45.6890   50.3710 N   0  0  0  0  0  0  0  0  0  0  0  0
    8.0480   46.1850   51.4290 C   0  0  0  0  0  0  0  0  0  0  0  0
    9.4350   45.9470   51.4360 C   0  0  0  0  0  0  0  0  0  0  0  0
   10.2330   46.4600   52.4650 C   0  0  0  0  0  0  0  0  0  0  0  0
    9.6580   47.2250   53.4820 C   0  0  0  0  0  0  0  0  0  0  0  0
    8.2850   47.4850   53.4700 C   0  0  0  0  0  0  0  0  0  0  0  0
    7.4850   46.9740   52.4440 C   0  0  0  0  0  0  0  0  0  0  0  0
    5.0680   44.5710   50.9280 C   0  0  0  0  0  0  0  0  0  0  0  0
    2.9550   41.7880   52.8160 H   0  0  0  0  0  0  0  0  0  0  0  0
   -1.7345   44.3728   56.0656 H   0  0  0  0  0  0  0  0  0  0  0  0
   -0.2237   46.0497   57.1927 H   0  0  0  0  0  0  0  0  0  0  0  0
    2.1731   46.2593   56.4749 H   0  0  0  0  0  0  0  0  0  0  0  0
    3.0410   44.8003   54.6072 H   0  0  0  0  0  0  0  0  0  0  0  0
    4.2066   41.2748   50.6047 H   0  0  0  0  0  0  0  0  0  0  0  0
    6.5402   41.1677   49.7370 H   0  0  0  0  0  0  0  0  0  0  0  0
    7.9361   43.2265   49.6351 H   0  0  0  0  0  0  0  0  0  0  0  0
    7.1910   46.2240   49.4720 H   0  0  0  0  0  0  0  0  0  0  0  0
    9.8936   45.3556   50.6298 H   0  0  0  0  0  0  0  0  0  0  0  0
   11.3147   46.2603   52.4727 H   0  0  0  0  0  0  0  0  0  0  0  0
   10.2860   47.6230   54.2927 H   0  0  0  0  0  0  0  0  0  0  0  0
    7.8335   48.0922   54.2685 H   0  0  0  0  0  0  0  0  0  0  0  0
    6.4068   47.1917   52.4320 H   0  0  0  0  0  0  0  0  0  0  0  0
    4.6456   45.5380   51.2385 H   0  0  0  0  0  0  0  0  0  0  0  0
  1  2  2  0
  2  3  1  0
  3  4  1  0
  4  5  2  0
  5  6  1  0
  6  7  2  0
  7  8  1  0
  8  9  2  0
  9 10  1  0
 10 11  2  0
 11 12  1  0
  2 13  1  0
 13 14  2  0
 14 15  1  0
 15 16  2  0
 16 17  1  0
 17 18  1  0
 18 19  1  0
 19 20  2  0
 20 21  1  0
 21 22  2  0
 22 23  1  0
 23 24  2  0
 17 25  2  0
 12  4  1  0
 25 13  1  0
 12  7  1  0
 24 19  1  0
  3 26  1  0
  8 27  1  0
  9 28  1  0
 10 29  1  0
 11 30  1  0
 14 31  1  0
 15 32  1  0
 16 33  1  0
 18 34  1  0
 20 35  1  0
 21 36  1  0
 22 37  1  0
 23 38  1  0
 24 39  1  0
 25 40  1  0
M  END
>  <meeko>  (1) 
{"is_sidechain": [false], "free_energy": -9.927, "intermolecular_energy": -12.249, "internal_energy": -0.825}

$$$$
ligand_18_conformer_3_docked
     RDKit          3D

 40 43  0  0  0  0  0  0  0  0999 V2000
    2.1830   45.2640   51.8080 O   0  0  0  0  0  0  0  0  0  0  0  0
    2.9810   44.4080   52.2800 C   0  0  0  0  0  0  0  0  0  0  0  0
    2.6880   43.7840   53.5390 N   0  0  0  0  0  0  0  0  0  0  0  0
    1.7530   44.3310   54.4760 C   0  0  0  0  0  0  0  0  0  0  0  0
    2.1140   45.1230   55.5090 N   0  0  0  0  0  0  0  0  0  0  0  0
    0.9980   45.4710   56.1470 N   0  0  0  0  0  0  0  0  0  0  0  0
   -0.0160   44.8900   55.4780 C   0  0  0  0  0  0  0  0  0  0  0  0
   -1.3740   45.0070   55.7600 C   0  0  0  0  0  0  0  0  0  0  0  0
   -2.2730   44.3640   54.8930 C   0  0  0  0  0  0  0  0  0  0  0  0
   -1.7980   43.6460   53.7770 C   0  0  0  0  0  0  0  0  0  0  0  0
   -0.4160   43.5680   53.5430 C   0  0  0  0  0  0  0  0  0  0  0  0
    0.4160   44.1790   54.4260 N   0  0  0  0  0  0  0  0  0  0  0  0
    4.1870   44.0270   51.5060 C   0  0  0  0  0  0  0  0  0  0  0  0
    4.3090   42.7310   50.9760 C   0  0  0  0  0  0  0  0  0  0  0  0
    5.4370   42.3730   50.2360 C   0  0  0  0  0  0  0  0  0  0  0  0
    6.4580   43.2990   50.0180 C   0  0  0  0  0  0  0  0  0  0  0  0
    6.3650   44.5930   50.5460 C   0  0  0  0  0  0  0  0  0  0  0  0
    7.4130   45.5410   50.2820 N   0  0  0  0  0  0  0  0  0  0  0  0
    8.2080   46.1780   51.2980 C   0  0  0  0  0  0  0  0  0  0  0  0
    7.6530   47.1330   52.1700 C   0  0  0  0  0  0  0  0  0  0  0  0
    8.4420   47.7210   53.1650 C   0  0  0  0  0  0  0  0  0  0  0  0
    9.7810   47.3500   53.3070 C   0  0  0  0  0  0  0  0  0  0  0  0
   10.3330   46.3860   52.4600 C   0  0  0  0  0  0  0  0  0  0  0  0
    9.5490   45.7960   51.4640 C   0  0  0  0  0  0  0  0  0  0  0  0
    5.2150   44.9590   51.2700 C   0  0  0  0  0  0  0  0  0  0  0  0
    3.0100   42.8040   53.6970 H   0  0  0  0  0  0  0  0  0  0  0  0
   -1.7296   45.5809   56.6284 H   0  0  0  0  0  0  0  0  0  0  0  0
   -3.3544   44.4212   55.0863 H   0  0  0  0  0  0  0  0  0  0  0  0
   -2.5046   43.1507   53.0948 H   0  0  0  0  0  0  0  0  0  0  0  0
   -0.0187   43.0283   52.6707 H   0  0  0  0  0  0  0  0  0  0  0  0
    3.5102   41.9940   51.1455 H   0  0  0  0  0  0  0  0  0  0  0  0
    5.5215   41.3570   49.8230 H   0  0  0  0  0  0  0  0  0  0  0  0
    7.3408   43.0111   49.4282 H   0  0  0  0  0  0  0  0  0  0  0  0
    7.6110   45.7840   49.2840 H   0  0  0  0  0  0  0  0  0  0  0  0
    6.5954   47.4182   52.0691 H   0  0  0  0  0  0  0  0  0  0  0  0
    8.0071   48.4763   53.8361 H   0  0  0  0  0  0  0  0  0  0  0  0
   10.4012   47.8171   54.0862 H   0  0  0  0  0  0  0  0  0  0  0  0
   11.3861   46.0906   52.5768 H   0  0  0  0  0  0  0  0  0  0  0  0
    9.9848   45.0288   50.8072 H   0  0  0  0  0  0  0  0  0  0  0  0
    5.1185   45.9846   51.6557 H   0  0  0  0  0  0  0  0  0  0  0  0
  1  2  2  0
  2  3  1  0
  3  4  1  0
  4  5  2  0
  5  6  1  0
  6  7  2  0
  7  8  1  0
  8  9  2  0
  9 10  1  0
 10 11  2  0
 11 12  1  0
  2 13  1  0
 13 14  2  0
 14 15  1  0
 15 16  2  0
 16 17  1  0
 17 18  1  0
 18 19  1  0
 19 20  2  0
 20 21  1  0
 21 22  2  0
 22 23  1  0
 23 24  2  0
 17 25  2  0
 12  4  1  0
 25 13  1  0
 12  7  1  0
 24 19  1  0
  3 26  1  0
  8 27  1  0
  9 28  1  0
 10 29  1  0
 11 30  1  0
 14 31  1  0
 15 32  1  0
 16 33  1  0
 18 34  1  0
 20 35  1  0
 21 36  1  0
 22 37  1  0
 23 38  1  0
 24 39  1  0
 25 40  1  0
M  END
>  <meeko>  (2) 
{"is_sidechain": [false], "free_energy": -9.484, "intermolecular_energy": -11.889, "internal_energy": -0.638}

$$$$
ligand_18_conformer_3_docked
     RDKit          3D

 40 43  0  0  0  0  0  0  0  0999 V2000
    4.2480   46.3880   51.8590 O   0  0  0  0  0  0  0  0  0  0  0  0
    4.7130   45.2250   52.0030 C   0  0  0  0  0  0  0  0  0  0  0  0
    4.1920   44.3750   53.0360 N   0  0  0  0  0  0  0  0  0  0  0  0
    3.4470   44.8780   54.1520 C   0  0  0  0  0  0  0  0  0  0  0  0
    3.9650   45.7240   55.0690 N   0  0  0  0  0  0  0  0  0  0  0  0
    2.9940   46.0070   55.9340 N   0  0  0  0  0  0  0  0  0  0  0  0
    1.9060   45.3340   55.5150 C   0  0  0  0  0  0  0  0  0  0  0  0
    0.6400   45.3590   56.0920 C   0  0  0  0  0  0  0  0  0  0  0  0
   -0.3760   44.6260   55.4550 C   0  0  0  0  0  0  0  0  0  0  0  0
   -0.1050   43.9130   54.2690 C   0  0  0  0  0  0  0  0  0  0  0  0
    1.1920   43.9300   53.7340 C   0  0  0  0  0  0  0  0  0  0  0  0
    2.1490   44.6270   54.4020 N   0  0  0  0  0  0  0  0  0  0  0  0
    5.7620   44.7360   51.0760 C   0  0  0  0  0  0  0  0  0  0  0  0
    6.9130   45.5080   50.8380 C   0  0  0  0  0  0  0  0  0  0  0  0
    7.9090   45.0450   49.9760 C   0  0  0  0  0  0  0  0  0  0  0  0
    7.7690   43.8110   49.3380 C   0  0  0  0  0  0  0  0  0  0  0  0
    6.6250   43.0300   49.5500 C   0  0  0  0  0  0  0  0  0  0  0  0
    6.5160   41.7480   48.9070 N   0  0  0  0  0  0  0  0  0  0  0  0
    5.5090   41.4070   47.9400 C   0  0  0  0  0  0  0  0  0  0  0  0
    5.6480   41.7570   46.5840 C   0  0  0  0  0  0  0  0  0  0  0  0
    4.6640   41.3930   45.6580 C   0  0  0  0  0  0  0  0  0  0  0  0
    3.5470   40.6640   46.0730 C   0  0  0  0  0  0  0  0  0  0  0  0
    3.4130   40.2930   47.4130 C   0  0  0  0  0  0  0  0  0  0  0  0
    4.3930   40.6560   48.3420 C   0  0  0  0  0  0  0  0  0  0  0  0
    5.6350   43.4870   50.4390 C   0  0  0  0  0  0  0  0  0  0  0  0
    4.1790   43.3440   52.8740 H   0  0  0  0  0  0  0  0  0  0  0  0
    0.4421   45.9303   57.0110 H   0  0  0  0  0  0  0  0  0  0  0  0
   -1.3887   44.6084   55.8842 H   0  0  0  0  0  0  0  0  0  0  0  0
   -0.9042   43.3479   53.7671 H   0  0  0  0  0  0  0  0  0  0  0  0
    1.4274   43.3953   52.8019 H   0  0  0  0  0  0  0  0  0  0  0  0
    7.0294   46.4829   51.3341 H   0  0  0  0  0  0  0  0  0  0  0  0
    8.8073   45.6547   49.7989 H   0  0  0  0  0  0  0  0  0  0  0  0
    8.5609   43.4499   48.6654 H   0  0  0  0  0  0  0  0  0  0  0  0
    7.2180   41.0150   49.1610 H   0  0  0  0  0  0  0  0  0  0  0  0
    6.5332   42.3186   46.2509 H   0  0  0  0  0  0  0  0  0  0  0  0
    4.7702   41.6813   44.6018 H   0  0  0  0  0  0  0  0  0  0  0  0
    2.7727   40.3820   45.3443 H   0  0  0  0  0  0  0  0  0  0  0  0
    2.5355   39.7146   47.7378 H   0  0  0  0  0  0  0  0  0  0  0  0
    4.2890   40.3514   49.3938 H   0  0  0  0  0  0  0  0  0  0  0  0
    4.7523   42.8617   50.6385 H   0  0  0  0  0  0  0  0  0  0  0  0
  1  2  2  0
  2  3  1  0
  3  4  1  0
  4  5  2  0
  5  6  1  0
  6  7  2  0
  7  8  1  0
  8  9  2  0
  9 10  1  0
 10 11  2  0
 11 12  1  0
  2 13  1  0
 13 14  2  0
 14 15  1  0
 15 16  2  0
 16 17  1  0
 17 18  1  0
 18 19  1  0
 19 20  2  0
 20 21  1  0
 21 22  2  0
 22 23  1  0
 23 24  2  0
 17 25  2  0
 12  4  1  0
 25 13  1  0
 12  7  1  0
 24 19  1  0
  3 26  1  0
  8 27  1  0
  9 28  1  0
 10 29  1  0
 11 30  1  0
 14 31  1  0
 15 32  1  0
 16 33  1  0
 18 34  1  0
 20 35  1  0
 21 36  1  0
 22 37  1  0
 23 38  1  0
 24 39  1  0
 25 40  1  0
M  END
>  <meeko>  (3) 
{"is_sidechain": [false], "free_energy": -8.8, "intermolecular_energy": -10.928, "internal_energy": -0.755}

$$$$
ligand_18_conformer_3_docked
     RDKit          3D

 40 43  0  0  0  0  0  0  0  0999 V2000
    4.2040   47.6600   53.1050 O   0  0  0  0  0  0  0  0  0  0  0  0
    4.2440   46.4150   53.3050 C   0  0  0  0  0  0  0  0  0  0  0  0
    5.3800   45.8390   53.9660 N   0  0  0  0  0  0  0  0  0  0  0  0
    6.6370   46.5170   54.0810 C   0  0  0  0  0  0  0  0  0  0  0  0
    6.9750   47.2790   55.1440 N   0  0  0  0  0  0  0  0  0  0  0  0
    8.2120   47.7220   54.9330 N   0  0  0  0  0  0  0  0  0  0  0  0
    8.6010   47.2090   53.7500 C   0  0  0  0  0  0  0  0  0  0  0  0
    9.8400   47.3720   53.1390 C   0  0  0  0  0  0  0  0  0  0  0  0
   10.0590   46.6950   51.9280 C   0  0  0  0  0  0  0  0  0  0  0  0
    9.0540   45.8740   51.3770 C   0  0  0  0  0  0  0  0  0  0  0  0
    7.8250   45.7470   52.0430 C   0  0  0  0  0  0  0  0  0  0  0  0
    7.6480   46.4460   53.1950 N   0  0  0  0  0  0  0  0  0  0  0  0
    3.0970   45.5710   52.8940 C   0  0  0  0  0  0  0  0  0  0  0  0
    1.7820   46.0510   53.0220 C   0  0  0  0  0  0  0  0  0  0  0  0
    0.6990   45.2650   52.6230 C   0  0  0  0  0  0  0  0  0  0  0  0
    0.9130   43.9910   52.0950 C   0  0  0  0  0  0  0  0  0  0  0  0
    2.2140   43.4850   51.9690 C   0  0  0  0  0  0  0  0  0  0  0  0
    2.4130   42.1830   51.3930 N   0  0  0  0  0  0  0  0  0  0  0  0
    3.5280   41.8260   50.5580 C   0  0  0  0  0  0  0  0  0  0  0  0
    3.3650   40.9820   49.4430 C   0  0  0  0  0  0  0  0  0  0  0  0
    4.4620   40.6680   48.6320 C   0  0  0  0  0  0  0  0  0  0  0  0
    5.7200   41.2040   48.9160 C   0  0  0  0  0  0  0  0  0  0  0  0
    5.8840   42.0600   50.0080 C   0  0  0  0  0  0  0  0  0  0  0  0
    4.7920   42.3760   50.8210 C   0  0  0  0  0  0  0  0  0  0  0  0
    3.3040   44.2900   52.3480 C   0  0  0  0  0  0  0  0  0  0  0  0
    5.2370   44.9890   54.5550 H   0  0  0  0  0  0  0  0  0  0  0  0
   10.6185   48.0069   53.5871 H   0  0  0  0  0  0  0  0  0  0  0  0
   11.0209   46.8061   51.4061 H   0  0  0  0  0  0  0  0  0  0  0  0
    9.2315   45.3376   50.4332 H   0  0  0  0  0  0  0  0  0  0  0  0
    7.0289   45.1010   51.6444 H   0  0  0  0  0  0  0  0  0  0  0  0
    1.6048   47.0531   53.4395 H   0  0  0  0  0  0  0  0  0  0  0  0
   -0.3259   45.6512   52.7252 H   0  0  0  0  0  0  0  0  0  0  0  0
    0.0556   43.3803   51.7758 H   0  0  0  0  0  0  0  0  0  0  0  0
    1.6990   41.4460   51.5950 H   0  0  0  0  0  0  0  0  0  0  0  0
    2.3731   40.5682   49.2085 H   0  0  0  0  0  0  0  0  0  0  0  0
    4.3329   39.9978   47.7694 H   0  0  0  0  0  0  0  0  0  0  0  0
    6.5815   40.9523   48.2801 H   0  0  0  0  0  0  0  0  0  0  0  0
    6.8740   42.4858   50.2282 H   0  0  0  0  0  0  0  0  0  0  0  0
    4.9241   43.0600   51.6723 H   0  0  0  0  0  0  0  0  0  0  0  0
    4.3294   43.9142   52.2162 H   0  0  0  0  0  0  0  0  0  0  0  0
  1  2  2  0
  2  3  1  0
  3  4  1  0
  4  5  2  0
  5  6  1  0
  6  7  2  0
  7  8  1  0
  8  9  2  0
  9 10  1  0
 10 11  2  0
 11 12  1  0
  2 13  1  0
 13 14  2  0
 14 15  1  0
 15 16  2  0
 16 17  1  0
 17 18  1  0
 18 19  1  0
 19 20  2  0
 20 21  1  0
 21 22  2  0
 22 23  1  0
 23 24  2  0
 17 25  2  0
 12  4  1  0
 25 13  1  0
 12  7  1  0
 24 19  1  0
  3 26  1  0
  8 27  1  0
  9 28  1  0
 10 29  1  0
 11 30  1  0
 14 31  1  0
 15 32  1  0
 16 33  1  0
 18 34  1  0
 20 35  1  0
 21 36  1  0
 22 37  1  0
 23 38  1  0
 24 39  1  0
 25 40  1  0
M  END
>  <meeko>  (4) 
{"is_sidechain": [false], "free_energy": -8.677, "intermolecular_energy": -11.284, "internal_energy": -0.247}

$$$$
ligand_18_conformer_3_docked
     RDKit          3D

 40 43  0  0  0  0  0  0  0  0999 V2000
    5.3140   44.3960   54.2050 O   0  0  0  0  0  0  0  0  0  0  0  0
    4.5730   45.3740   53.9100 C   0  0  0  0  0  0  0  0  0  0  0  0
    5.1680   46.6210   53.5220 N   0  0  0  0  0  0  0  0  0  0  0  0
    6.5330   46.9510   53.8040 C   0  0  0  0  0  0  0  0  0  0  0  0
    6.9400   47.4940   54.9720 N   0  0  0  0  0  0  0  0  0  0  0  0
    8.2610   47.6350   54.9010 N   0  0  0  0  0  0  0  0  0  0  0  0
    8.6280   47.1620   53.6950 C   0  0  0  0  0  0  0  0  0  0  0  0
    9.9230   47.0730   53.1950 C   0  0  0  0  0  0  0  0  0  0  0  0
   10.0900   46.4880   51.9280 C   0  0  0  0  0  0  0  0  0  0  0  0
    8.9750   46.0020   51.2150 C   0  0  0  0  0  0  0  0  0  0  0  0
    7.6930   46.1180   51.7740 C   0  0  0  0  0  0  0  0  0  0  0  0
    7.5780   46.7200   52.9870 N   0  0  0  0  0  0  0  0  0  0  0  0
    3.1000   45.2080   53.9280 C   0  0  0  0  0  0  0  0  0  0  0  0
    2.4060   45.1640   55.1500 C   0  0  0  0  0  0  0  0  0  0  0  0
    1.0170   45.0220   55.1700 C   0  0  0  0  0  0  0  0  0  0  0  0
    0.3040   44.9180   53.9750 C   0  0  0  0  0  0  0  0  0  0  0  0
    0.9750   44.9460   52.7450 C   0  0  0  0  0  0  0  0  0  0  0  0
    0.2170   44.8700   51.5250 N   0  0  0  0  0  0  0  0  0  0  0  0
   -1.1220   44.3560   51.4310 C   0  0  0  0  0  0  0  0  0  0  0  0
   -1.3690   42.9770   51.2940 C   0  0  0  0  0  0  0  0  0  0  0  0
   -2.6820   42.4990   51.2280 C   0  0  0  0  0  0  0  0  0  0  0  0
   -3.7560   43.3880   51.3150 C   0  0  0  0  0  0  0  0  0  0  0  0
   -3.5200   44.7560   51.4750 C   0  0  0  0  0  0  0  0  0  0  0  0
   -2.2090   45.2370   51.5400 C   0  0  0  0  0  0  0  0  0  0  0  0
    2.3720   45.1160   52.7270 C   0  0  0  0  0  0  0  0  0  0  0  0
    4.6570   47.2260   52.8420 H   0  0  0  0  0  0  0  0  0  0  0  0
   10.7837   47.4463   53.7694 H   0  0  0  0  0  0  0  0  0  0  0  0
   11.0961   46.4089   51.4903 H   0  0  0  0  0  0  0  0  0  0  0  0
    9.1089   45.5354   50.2279 H   0  0  0  0  0  0  0  0  0  0  0  0
    6.8079   45.7333   51.2463 H   0  0  0  0  0  0  0  0  0  0  0  0
    2.9609   45.2420   56.0966 H   0  0  0  0  0  0  0  0  0  0  0  0
    0.4830   44.9920   56.1312 H   0  0  0  0  0  0  0  0  0  0  0  0
   -0.7908   44.8135   53.9986 H   0  0  0  0  0  0  0  0  0  0  0  0
    0.6710   45.2120   50.6470 H   0  0  0  0  0  0  0  0  0  0  0  0
   -0.5261   42.2724   51.2386 H   0  0  0  0  0  0  0  0  0  0  0  0
   -2.8690   41.4217   51.1074 H   0  0  0  0  0  0  0  0  0  0  0  0
   -4.7878   43.0111   51.2575 H   0  0  0  0  0  0  0  0  0  0  0  0
   -4.3663   45.4548   51.5498 H   0  0  0  0  0  0  0  0  0  0  0  0
   -2.0282   46.3133   51.6775 H   0  0  0  0  0  0  0  0  0  0  0  0
    2.9004   45.1776   51.7642 H   0  0  0  0  0  0  0  0  0  0  0  0
  1  2  2  0
  2  3  1  0
  3  4  1  0
  4  5  2  0
  5  6  1  0
  6  7  2  0
  7  8  1  0
  8  9  2  0
  9 10  1  0
 10 11  2  0
 11 12  1  0
  2 13  1  0
 13 14  2  0
 14 15  1  0
 15 16  2  0
 16 17  1  0
 17 18  1  0
 18 19  1  0
 19 20  2  0
 20 21  1  0
 21 22  2  0
 22 23  1  0
 23 24  2  0
 17 25  2  0
 12  4  1  0
 25 13  1  0
 12  7  1  0
 24 19  1  0
  3 26  1  0
  8 27  1  0
  9 28  1  0
 10 29  1  0
 11 30  1  0
 14 31  1  0
 15 32  1  0
 16 33  1  0
 18 34  1  0
 20 35  1  0
 21 36  1  0
 22 37  1  0
 23 38  1  0
 24 39  1  0
 25 40  1  0
M  END
>  <meeko>  (5) 
{"is_sidechain": [false], "free_energy": -8.098, "intermolecular_energy": -10.093, "internal_energy": -0.724}

$$$$
