ligand_34_conformer_4_docked
     RDKit          3D

 48 51  0  0  0  0  0  0  0  0999 V2000
    8.0910   48.3980   52.2480 C   0  0  0  0  0  0  0  0  0  0  0  0
    8.5720   47.4810   53.3840 C   0  0  0  0  0  0  0  0  0  0  0  0
    9.8980   46.8170   52.9670 C   0  0  0  0  0  0  0  0  0  0  0  0
    8.7820   48.2750   54.5280 O   0  0  0  0  0  0  0  0  0  0  0  0
    7.5090   46.4000   53.6790 C   0  0  0  0  0  0  0  0  0  0  0  0
    6.9160   46.6390   54.9360 O   0  0  0  0  0  0  0  0  0  0  0  0
    5.5730   46.4910   54.7730 N   0  0  0  0  0  0  0  0  0  0  0  0
    4.9860   45.1870   54.7530 C   0  0  0  0  0  0  0  0  0  0  0  0
    5.7270   44.1710   54.8350 O   0  0  0  0  0  0  0  0  0  0  0  0
    3.5210   45.0200   54.6810 C   0  0  0  0  0  0  0  0  0  0  0  0
    2.7220   45.2910   55.8140 C   0  0  0  0  0  0  0  0  0  0  0  0
    1.3370   44.9930   55.8020 C   0  0  0  0  0  0  0  0  0  0  0  0
    0.5040   45.2500   57.0230 C   0  0  0  0  0  0  0  0  0  0  0  0
   -0.5420   46.3450   56.8450 C   0  0  0  0  0  0  0  0  0  0  0  0
   -0.9710   44.8870   56.8940 C   0  0  0  0  0  0  0  0  0  0  0  0
    0.7700   44.4030   54.7060 N   0  0  0  0  0  0  0  0  0  0  0  0
    1.5380   44.1620   53.6180 C   0  0  0  0  0  0  0  0  0  0  0  0
    1.1490   43.6230   52.4920 O   0  0  0  0  0  0  0  0  0  0  0  0
    2.1490   43.5760   51.6550 N   0  0  0  0  0  0  0  0  0  0  0  0
    3.2320   44.1060   52.2750 C   0  0  0  0  0  0  0  0  0  0  0  0
    4.5020   44.3640   51.5730 C   0  0  0  0  0  0  0  0  0  0  0  0
    5.2930   43.2880   51.1390 C   0  0  0  0  0  0  0  0  0  0  0  0
    6.4810   43.5240   50.4420 C   0  0  0  0  0  0  0  0  0  0  0  0
    6.8760   44.8330   50.1550 C   0  0  0  0  0  0  0  0  0  0  0  0
    6.0790   45.9080   50.5580 C   0  0  0  0  0  0  0  0  0  0  0  0
    4.8940   45.6760   51.2610 C   0  0  0  0  0  0  0  0  0  0  0  0
    2.8640   44.4770   53.5630 C   0  0  0  0  0  0  0  0  0  0  0  0
    7.6202   49.2955   52.6757 H   0  0  0  0  0  0  0  0  0  0  0  0
    8.9496   48.6946   51.6277 H   0  0  0  0  0  0  0  0  0  0  0  0
    7.3589   47.8602   51.6277 H   0  0  0  0  0  0  0  0  0  0  0  0
   10.4646   46.5333   53.8661 H   0  0  0  0  0  0  0  0  0  0  0  0
    9.6860   45.9187   52.3686 H   0  0  0  0  0  0  0  0  0  0  0  0
   10.4903   47.5249   52.3686 H   0  0  0  0  0  0  0  0  0  0  0  0
    9.7500   48.4960   54.5750 H   0  0  0  0  0  0  0  0  0  0  0  0
    6.7339   46.4284   52.8990 H   0  0  0  0  0  0  0  0  0  0  0  0
    7.9914   45.4115   53.6887 H   0  0  0  0  0  0  0  0  0  0  0  0
    4.9710   47.3430   54.7110 H   0  0  0  0  0  0  0  0  0  0  0  0
    3.1778   45.7360   56.7108 H   0  0  0  0  0  0  0  0  0  0  0  0
    1.2951   45.0276   57.7542 H   0  0  0  0  0  0  0  0  0  0  0  0
   -0.7822   47.0172   57.6820 H   0  0  0  0  0  0  0  0  0  0  0  0
   -0.6864   47.1744   56.1370 H   0  0  0  0  0  0  0  0  0  0  0  0
   -1.5214   44.5049   57.7664 H   0  0  0  0  0  0  0  0  0  0  0  0
   -1.5541   44.2258   56.2361 H   0  0  0  0  0  0  0  0  0  0  0  0
    4.9763   42.2556   51.3484 H   0  0  0  0  0  0  0  0  0  0  0  0
    7.1058   42.6782   50.1190 H   0  0  0  0  0  0  0  0  0  0  0  0
    7.8145   45.0176   49.6117 H   0  0  0  0  0  0  0  0  0  0  0  0
    6.3849   46.9378   50.3215 H   0  0  0  0  0  0  0  0  0  0  0  0
    4.2658   46.5240   51.5712 H   0  0  0  0  0  0  0  0  0  0  0  0
  1  2  1  0
  2  3  1  0
  2  4  1  0
  2  5  1  0
  5  6  1  0
  6  7  1  0
  7  8  1  0
  8  9  2  0
  8 10  1  0
 10 11  2  0
 11 12  1  0
 12 13  1  0
 13 14  1  0
 14 15  1  0
 12 16  2  0
 16 17  1  0
 17 18  1  0
 18 19  1  0
 19 20  2  0
 20 21  1  0
 21 22  2  0
 22 23  1  0
 23 24  2  0
 24 25  1  0
 25 26  2  0
 20 27  1  0
 27 10  1  0
 15 13  1  0
 27 17  2  0
 26 21  1  0
  1 28  1  0
  1 29  1  0
  1 30  1  0
  3 31  1  0
  3 32  1  0
  3 33  1  0
  4 34  1  0
  5 35  1  0
  5 36  1  0
  7 37  1  0
 11 38  1  0
 13 39  1  0
 14 40  1  0
 14 41  1  0
 15 42  1  0
 15 43  1  0
 22 44  1  0
 23 45  1  0
 24 46  1  0
 25 47  1  0
 26 48  1  0
M  END
>  <meeko>  (1) 
{"is_sidechain": [false], "free_energy": -8.999, "intermolecular_energy": -12.419, "internal_energy": -0.924}

$$$$
ligand_34_conformer_4_docked
     RDKit          3D

 48 51  0  0  0  0  0  0  0  0999 V2000
   -0.0440   45.8110   56.2180 C   0  0  0  0  0  0  0  0  0  0  0  0
    0.5380   45.0420   55.0220 C   0  0  0  0  0  0  0  0  0  0  0  0
   -0.3530   43.8200   54.7260 C   0  0  0  0  0  0  0  0  0  0  0  0
    0.5420   45.9030   53.9070 O   0  0  0  0  0  0  0  0  0  0  0  0
    1.9780   44.5810   55.3380 C   0  0  0  0  0  0  0  0  0  0  0  0
    2.7770   45.6940   55.6770 O   0  0  0  0  0  0  0  0  0  0  0  0
    3.9590   45.5450   55.0210 N   0  0  0  0  0  0  0  0  0  0  0  0
    4.2460   46.3320   53.8600 C   0  0  0  0  0  0  0  0  0  0  0  0
    3.3740   47.1260   53.4170 O   0  0  0  0  0  0  0  0  0  0  0  0
    5.5650   46.2530   53.2030 C   0  0  0  0  0  0  0  0  0  0  0  0
    6.6580   46.9820   53.7220 C   0  0  0  0  0  0  0  0  0  0  0  0
    7.8860   47.0320   53.0170 C   0  0  0  0  0  0  0  0  0  0  0  0
    9.0290   47.8390   53.5570 C   0  0  0  0  0  0  0  0  0  0  0  0
    9.4300   47.4780   54.9830 C   0  0  0  0  0  0  0  0  0  0  0  0
   10.3130   47.0600   53.8180 C   0  0  0  0  0  0  0  0  0  0  0  0
    8.0110   46.4050   51.8080 N   0  0  0  0  0  0  0  0  0  0  0  0
    6.9650   45.6940   51.3250 C   0  0  0  0  0  0  0  0  0  0  0  0
    6.9270   45.0280   50.2010 O   0  0  0  0  0  0  0  0  0  0  0  0
    5.7710   44.4360   50.0750 N   0  0  0  0  0  0  0  0  0  0  0  0
    5.0310   44.7390   51.1700 C   0  0  0  0  0  0  0  0  0  0  0  0
    3.7270   44.1110   51.4470 C   0  0  0  0  0  0  0  0  0  0  0  0
    2.5570   44.6530   50.8910 C   0  0  0  0  0  0  0  0  0  0  0  0
    1.3210   44.0420   51.1200 C   0  0  0  0  0  0  0  0  0  0  0  0
    1.2470   42.8760   51.8860 C   0  0  0  0  0  0  0  0  0  0  0  0
    2.4110   42.3140   52.4180 C   0  0  0  0  0  0  0  0  0  0  0  0
    3.6480   42.9260   52.1970 C   0  0  0  0  0  0  0  0  0  0  0  0
    5.7800   45.5750   51.9910 C   0  0  0  0  0  0  0  0  0  0  0  0
    0.3043   45.3508   57.1544 H   0  0  0  0  0  0  0  0  0  0  0  0
    0.2897   46.8584   56.1779 H   0  0  0  0  0  0  0  0  0  0  0  0
   -1.1427   45.7744   56.1779 H   0  0  0  0  0  0  0  0  0  0  0  0
   -0.6824   43.3683   55.6734 H   0  0  0  0  0  0  0  0  0  0  0  0
   -1.2320   44.1389   54.1467 H   0  0  0  0  0  0  0  0  0  0  0  0
    0.2194   43.0806   54.1467 H   0  0  0  0  0  0  0  0  0  0  0  0
    1.4520   46.2980   53.8280 H   0  0  0  0  0  0  0  0  0  0  0  0
    1.9580   43.8761   56.1823 H   0  0  0  0  0  0  0  0  0  0  0  0
    2.4025   44.0881   54.4510 H   0  0  0  0  0  0  0  0  0  0  0  0
    4.6730   44.8860   55.4030 H   0  0  0  0  0  0  0  0  0  0  0  0
    6.5551   47.5141   54.6793 H   0  0  0  0  0  0  0  0  0  0  0  0
    8.7816   48.7660   53.0189 H   0  0  0  0  0  0  0  0  0  0  0  0
    9.7679   48.2637   55.6747 H   0  0  0  0  0  0  0  0  0  0  0  0
    8.9437   46.9519   55.8177 H   0  0  0  0  0  0  0  0  0  0  0  0
   11.2895   47.5434   53.6673 H   0  0  0  0  0  0  0  0  0  0  0  0
   10.7296   46.1064   53.4616 H   0  0  0  0  0  0  0  0  0  0  0  0
    2.6134   45.5614   50.2732 H   0  0  0  0  0  0  0  0  0  0  0  0
    0.4051   44.4799   50.6965 H   0  0  0  0  0  0  0  0  0  0  0  0
    0.2726   42.4001   52.0705 H   0  0  0  0  0  0  0  0  0  0  0  0
    2.3535   41.3894   53.0111 H   0  0  0  0  0  0  0  0  0  0  0  0
    4.5630   42.4780   52.6119 H   0  0  0  0  0  0  0  0  0  0  0  0
  1  2  1  0
  2  3  1  0
  2  4  1  0
  2  5  1  0
  5  6  1  0
  6  7  1  0
  7  8  1  0
  8  9  2  0
  8 10  1  0
 10 11  2  0
 11 12  1  0
 12 13  1  0
 13 14  1  0
 14 15  1  0
 12 16  2  0
 16 17  1  0
 17 18  1  0
 18 19  1  0
 19 20  2  0
 20 21  1  0
 21 22  2  0
 22 23  1  0
 23 24  2  0
 24 25  1  0
 25 26  2  0
 20 27  1  0
 27 10  1  0
 15 13  1  0
 27 17  2  0
 26 21  1  0
  1 28  1  0
  1 29  1  0
  1 30  1  0
  3 31  1  0
  3 32  1  0
  3 33  1  0
  4 34  1  0
  5 35  1  0
  5 36  1  0
  7 37  1  0
 11 38  1  0
 13 39  1  0
 14 40  1  0
 14 41  1  0
 15 42  1  0
 15 43  1  0
 22 44  1  0
 23 45  1  0
 24 46  1  0
 25 47  1  0
 26 48  1  0
M  END
>  <meeko>  (2) 
{"is_sidechain": [false], "free_energy": -8.733, "intermolecular_energy": -11.486, "internal_energy": -1.488}

$$$$
ligand_34_conformer_4_docked
     RDKit          3D

 48 51  0  0  0  0  0  0  0  0999 V2000
    0.3710   44.9990   54.3760 C   0  0  0  0  0  0  0  0  0  0  0  0
    1.8630   44.7090   54.1510 C   0  0  0  0  0  0  0  0  0  0  0  0
    2.6690   45.2540   55.3450 C   0  0  0  0  0  0  0  0  0  0  0  0
    2.0300   43.3130   54.0670 O   0  0  0  0  0  0  0  0  0  0  0  0
    2.3420   45.3770   52.8420 C   0  0  0  0  0  0  0  0  0  0  0  0
    2.9120   44.4100   51.9880 O   0  0  0  0  0  0  0  0  0  0  0  0
    4.2620   44.5200   52.1130 N   0  0  0  0  0  0  0  0  0  0  0  0
    5.0300   45.1820   51.1040 C   0  0  0  0  0  0  0  0  0  0  0  0
    4.4540   45.6180   50.0710 O   0  0  0  0  0  0  0  0  0  0  0  0
    6.4790   45.3980   51.2790 C   0  0  0  0  0  0  0  0  0  0  0  0
    6.9440   46.4120   52.1460 C   0  0  0  0  0  0  0  0  0  0  0  0
    8.3240   46.7260   52.2080 C   0  0  0  0  0  0  0  0  0  0  0  0
    8.8030   47.8300   53.1040 C   0  0  0  0  0  0  0  0  0  0  0  0
    8.5330   47.5920   54.5850 C   0  0  0  0  0  0  0  0  0  0  0  0
    9.9460   47.4600   54.0410 C   0  0  0  0  0  0  0  0  0  0  0  0
    9.2140   46.0750   51.3990 N   0  0  0  0  0  0  0  0  0  0  0  0
    8.7650   45.0930   50.5830 C   0  0  0  0  0  0  0  0  0  0  0  0
    9.4830   44.3680   49.7660 O   0  0  0  0  0  0  0  0  0  0  0  0
    8.7220   43.4950   49.1630 N   0  0  0  0  0  0  0  0  0  0  0  0
    7.4550   43.6710   49.6130 C   0  0  0  0  0  0  0  0  0  0  0  0
    6.3560   42.7520   49.2700 C   0  0  0  0  0  0  0  0  0  0  0  0
    6.1060   42.4310   47.9270 C   0  0  0  0  0  0  0  0  0  0  0  0
    5.0880   41.5320   47.5960 C   0  0  0  0  0  0  0  0  0  0  0  0
    4.3270   40.9330   48.6030 C   0  0  0  0  0  0  0  0  0  0  0  0
    4.5890   41.2260   49.9440 C   0  0  0  0  0  0  0  0  0  0  0  0
    5.6030   42.1280   50.2790 C   0  0  0  0  0  0  0  0  0  0  0  0
    7.4530   44.7210   50.5250 C   0  0  0  0  0  0  0  0  0  0  0  0
    0.1640   45.0392   55.4556 H   0  0  0  0  0  0  0  0  0  0  0  0
    0.1118   45.9643   53.9167 H   0  0  0  0  0  0  0  0  0  0  0  0
   -0.2310   44.2010   53.9167 H   0  0  0  0  0  0  0  0  0  0  0  0
    2.1949   44.9334   56.2844 H   0  0  0  0  0  0  0  0  0  0  0  0
    3.6970   44.8649   55.3017 H   0  0  0  0  0  0  0  0  0  0  0  0
    2.6908   46.3529   55.3017 H   0  0  0  0  0  0  0  0  0  0  0  0
    2.5660   43.1160   53.2530 H   0  0  0  0  0  0  0  0  0  0  0  0
    1.4849   45.8479   52.3384 H   0  0  0  0  0  0  0  0  0  0  0  0
    3.0986   46.1388   53.0810 H   0  0  0  0  0  0  0  0  0  0  0  0
    4.7240   44.1580   52.9770 H   0  0  0  0  0  0  0  0  0  0  0  0
    6.2298   46.9613   52.7770 H   0  0  0  0  0  0  0  0  0  0  0  0
    8.6202   48.6476   52.3911 H   0  0  0  0  0  0  0  0  0  0  0  0
    8.2724   48.4371   55.2391 H   0  0  0  0  0  0  0  0  0  0  0  0
    7.8561   46.9403   55.1569 H   0  0  0  0  0  0  0  0  0  0  0  0
   10.7077   48.2096   54.3017 H   0  0  0  0  0  0  0  0  0  0  0  0
   10.7145   46.6731   54.0566 H   0  0  0  0  0  0  0  0  0  0  0  0
    6.7132   42.8884   47.1320 H   0  0  0  0  0  0  0  0  0  0  0  0
    4.8857   41.2958   46.5409 H   0  0  0  0  0  0  0  0  0  0  0  0
    3.5219   40.2310   48.3403 H   0  0  0  0  0  0  0  0  0  0  0  0
    3.9965   40.7462   50.7370 H   0  0  0  0  0  0  0  0  0  0  0  0
    5.8121   42.3500   51.3359 H   0  0  0  0  0  0  0  0  0  0  0  0
  1  2  1  0
  2  3  1  0
  2  4  1  0
  2  5  1  0
  5  6  1  0
  6  7  1  0
  7  8  1  0
  8  9  2  0
  8 10  1  0
 10 11  2  0
 11 12  1  0
 12 13  1  0
 13 14  1  0
 14 15  1  0
 12 16  2  0
 16 17  1  0
 17 18  1  0
 18 19  1  0
 19 20  2  0
 20 21  1  0
 21 22  2  0
 22 23  1  0
 23 24  2  0
 24 25  1  0
 25 26  2  0
 20 27  1  0
 27 10  1  0
 15 13  1  0
 27 17  2  0
 26 21  1  0
  1 28  1  0
  1 29  1  0
  1 30  1  0
  3 31  1  0
  3 32  1  0
  3 33  1  0
  4 34  1  0
  5 35  1  0
  5 36  1  0
  7 37  1  0
 11 38  1  0
 13 39  1  0
 14 40  1  0
 14 41  1  0
 15 42  1  0
 15 43  1  0
 22 44  1  0
 23 45  1  0
 24 46  1  0
 25 47  1  0
 26 48  1  0
M  END
>  <meeko>  (3) 
{"is_sidechain": [false], "free_energy": -8.562, "intermolecular_energy": -12.044, "internal_energy": -0.695}

$$$$
ligand_34_conformer_4_docked
     RDKit          3D

 48 51  0  0  0  0  0  0  0  0999 V2000
    5.2820   41.0060   48.0730 C   0  0  0  0  0  0  0  0  0  0  0  0
    5.9950   41.5060   49.3390 C   0  0  0  0  0  0  0  0  0  0  0  0
    4.9770   41.5820   50.4930 C   0  0  0  0  0  0  0  0  0  0  0  0
    7.0080   40.5830   49.6650 O   0  0  0  0  0  0  0  0  0  0  0  0
    6.6110   42.8990   49.0860 C   0  0  0  0  0  0  0  0  0  0  0  0
    5.6930   43.9060   49.4530 O   0  0  0  0  0  0  0  0  0  0  0  0
    6.1690   44.4770   50.5920 N   0  0  0  0  0  0  0  0  0  0  0  0
    5.4840   45.5840   51.1880 C   0  0  0  0  0  0  0  0  0  0  0  0
    4.4650   46.0610   50.6200 O   0  0  0  0  0  0  0  0  0  0  0  0
    5.9320   46.1430   52.4770 C   0  0  0  0  0  0  0  0  0  0  0  0
    7.1590   46.8380   52.5590 C   0  0  0  0  0  0  0  0  0  0  0  0
    7.6690   47.2480   53.8150 C   0  0  0  0  0  0  0  0  0  0  0  0
    8.9900   47.9540   53.8950 C   0  0  0  0  0  0  0  0  0  0  0  0
    9.9700   47.3320   54.8830 C   0  0  0  0  0  0  0  0  0  0  0  0
   10.1860   47.1570   53.3890 C   0  0  0  0  0  0  0  0  0  0  0  0
    6.9950   46.9390   54.9650 N   0  0  0  0  0  0  0  0  0  0  0  0
    5.8120   46.2870   54.8790 C   0  0  0  0  0  0  0  0  0  0  0  0
    5.0410   45.9340   55.8730 O   0  0  0  0  0  0  0  0  0  0  0  0
    3.9640   45.3550   55.4160 N   0  0  0  0  0  0  0  0  0  0  0  0
    4.0510   45.3320   54.0630 C   0  0  0  0  0  0  0  0  0  0  0  0
    2.9360   44.8980   53.2030 C   0  0  0  0  0  0  0  0  0  0  0  0
    2.8740   43.5680   52.7570 C   0  0  0  0  0  0  0  0  0  0  0  0
    1.8010   43.1390   51.9700 C   0  0  0  0  0  0  0  0  0  0  0  0
    0.7740   44.0280   51.6420 C   0  0  0  0  0  0  0  0  0  0  0  0
    0.8150   45.3450   52.1060 C   0  0  0  0  0  0  0  0  0  0  0  0
    1.8890   45.7790   52.8880 C   0  0  0  0  0  0  0  0  0  0  0  0
    5.2560   45.9160   53.6890 C   0  0  0  0  0  0  0  0  0  0  0  0
    4.4123   40.3961   48.3587 H   0  0  0  0  0  0  0  0  0  0  0  0
    4.9460   41.8673   47.4770 H   0  0  0  0  0  0  0  0  0  0  0  0
    5.9773   40.3966   47.4770 H   0  0  0  0  0  0  0  0  0  0  0  0
    5.5094   41.5423   51.4548 H   0  0  0  0  0  0  0  0  0  0  0  0
    4.4143   42.5247   50.4241 H   0  0  0  0  0  0  0  0  0  0  0  0
    4.2806   40.7334   50.4241 H   0  0  0  0  0  0  0  0  0  0  0  0
    7.4230   40.2710   48.8170 H   0  0  0  0  0  0  0  0  0  0  0  0
    7.5278   43.0061   49.6843 H   0  0  0  0  0  0  0  0  0  0  0  0
    6.8496   42.9998   48.0169 H   0  0  0  0  0  0  0  0  0  0  0  0
    7.0120   44.0670   51.0530 H   0  0  0  0  0  0  0  0  0  0  0  0
    7.7222   47.0623   51.6411 H   0  0  0  0  0  0  0  0  0  0  0  0
    8.5960   48.9634   53.7058 H   0  0  0  0  0  0  0  0  0  0  0  0
   10.6468   47.9751   55.4648 H   0  0  0  0  0  0  0  0  0  0  0  0
    9.8809   46.6492   55.7408 H   0  0  0  0  0  0  0  0  0  0  0  0
   11.0192   47.6734   52.8899 H   0  0  0  0  0  0  0  0  0  0  0  0
   10.3180   46.2950   52.7186 H   0  0  0  0  0  0  0  0  0  0  0  0
    3.6723   42.8613   53.0277 H   0  0  0  0  0  0  0  0  0  0  0  0
    1.7652   42.1007   51.6087 H   0  0  0  0  0  0  0  0  0  0  0  0
   -0.0669   43.6907   51.0183 H   0  0  0  0  0  0  0  0  0  0  0  0
    0.0011   46.0413   51.8556 H   0  0  0  0  0  0  0  0  0  0  0  0
    1.9142   46.8146   53.2581 H   0  0  0  0  0  0  0  0  0  0  0  0
  1  2  1  0
  2  3  1  0
  2  4  1  0
  2  5  1  0
  5  6  1  0
  6  7  1  0
  7  8  1  0
  8  9  2  0
  8 10  1  0
 10 11  2  0
 11 12  1  0
 12 13  1  0
 13 14  1  0
 14 15  1  0
 12 16  2  0
 16 17  1  0
 17 18  1  0
 18 19  1  0
 19 20  2  0
 20 21  1  0
 21 22  2  0
 22 23  1  0
 23 24  2  0
 24 25  1  0
 25 26  2  0
 20 27  1  0
 27 10  1  0
 15 13  1  0
 27 17  2  0
 26 21  1  0
  1 28  1  0
  1 29  1  0
  1 30  1  0
  3 31  1  0
  3 32  1  0
  3 33  1  0
  4 34  1  0
  5 35  1  0
  5 36  1  0
  7 37  1  0
 11 38  1  0
 13 39  1  0
 14 40  1  0
 14 41  1  0
 15 42  1  0
 15 43  1  0
 22 44  1  0
 23 45  1  0
 24 46  1  0
 25 47  1  0
 26 48  1  0
M  END
>  <meeko>  (4) 
{"is_sidechain": [false], "free_energy": -8.547, "intermolecular_energy": -12.058, "internal_energy": -0.661}

$$$$
ligand_34_conformer_4_docked
     RDKit          3D

 48 51  0  0  0  0  0  0  0  0999 V2000
    5.3550   41.0240   47.9150 C   0  0  0  0  0  0  0  0  0  0  0  0
    5.7810   41.6340   49.2600 C   0  0  0  0  0  0  0  0  0  0  0  0
    4.6210   41.5000   50.2640 C   0  0  0  0  0  0  0  0  0  0  0  0
    6.8980   40.9170   49.7310 O   0  0  0  0  0  0  0  0  0  0  0  0
    6.1500   43.1230   49.0730 C   0  0  0  0  0  0  0  0  0  0  0  0
    7.0610   43.5220   50.0730 O   0  0  0  0  0  0  0  0  0  0  0  0
    6.3370   43.7380   51.2040 N   0  0  0  0  0  0  0  0  0  0  0  0
    5.4600   44.8650   51.2980 C   0  0  0  0  0  0  0  0  0  0  0  0
    5.4020   45.6870   50.3450 O   0  0  0  0  0  0  0  0  0  0  0  0
    4.5930   45.0500   52.4780 C   0  0  0  0  0  0  0  0  0  0  0  0
    3.3990   44.3060   52.6020 C   0  0  0  0  0  0  0  0  0  0  0  0
    2.4880   44.5820   53.6510 C   0  0  0  0  0  0  0  0  0  0  0  0
    1.2040   43.8120   53.7530 C   0  0  0  0  0  0  0  0  0  0  0  0
    0.1470   44.2250   52.7360 C   0  0  0  0  0  0  0  0  0  0  0  0
    0.8890   42.9100   52.5660 C   0  0  0  0  0  0  0  0  0  0  0  0
    2.7400   45.5980   54.5320 N   0  0  0  0  0  0  0  0  0  0  0  0
    3.8950   46.2950   54.4180 C   0  0  0  0  0  0  0  0  0  0  0  0
    4.2920   47.2780   55.1820 O   0  0  0  0  0  0  0  0  0  0  0  0
    5.4700   47.6900   54.7990 N   0  0  0  0  0  0  0  0  0  0  0  0
    5.8440   46.9370   53.7360 C   0  0  0  0  0  0  0  0  0  0  0  0
    7.1910   47.0140   53.1430 C   0  0  0  0  0  0  0  0  0  0  0  0
    8.2130   46.1750   53.6160 C   0  0  0  0  0  0  0  0  0  0  0  0
    9.4840   46.2170   53.0350 C   0  0  0  0  0  0  0  0  0  0  0  0
    9.7370   47.0810   51.9670 C   0  0  0  0  0  0  0  0  0  0  0  0
    8.7170   47.8980   51.4720 C   0  0  0  0  0  0  0  0  0  0  0  0
    7.4470   47.8630   52.0540 C   0  0  0  0  0  0  0  0  0  0  0  0
    4.8260   46.0340   53.4540 C   0  0  0  0  0  0  0  0  0  0  0  0
    4.7338   40.1345   48.0962 H   0  0  0  0  0  0  0  0  0  0  0  0
    4.7768   41.7647   47.3431 H   0  0  0  0  0  0  0  0  0  0  0  0
    6.2495   40.7363   47.3431 H   0  0  0  0  0  0  0  0  0  0  0  0
    5.0165   41.5457   51.2894 H   0  0  0  0  0  0  0  0  0  0  0  0
    3.9059   42.3215   50.1099 H   0  0  0  0  0  0  0  0  0  0  0  0
    4.1120   40.5371   50.1099 H   0  0  0  0  0  0  0  0  0  0  0  0
    7.7110   41.2970   49.3010 H   0  0  0  0  0  0  0  0  0  0  0  0
    6.6102   43.2631   48.0837 H   0  0  0  0  0  0  0  0  0  0  0  0
    5.2385   43.7339   49.1495 H   0  0  0  0  0  0  0  0  0  0  0  0
    6.3920   43.0440   51.9830 H   0  0  0  0  0  0  0  0  0  0  0  0
    3.1751   43.5073   51.8796 H   0  0  0  0  0  0  0  0  0  0  0  0
    1.2362   43.6736   54.8438 H   0  0  0  0  0  0  0  0  0  0  0  0
   -0.9165   44.2238   53.0171 H   0  0  0  0  0  0  0  0  0  0  0  0
   -0.0204   45.1102   52.1049 H   0  0  0  0  0  0  0  0  0  0  0  0
    0.3624   41.9572   52.7241 H   0  0  0  0  0  0  0  0  0  0  0  0
    1.4807   42.4499   51.7609 H   0  0  0  0  0  0  0  0  0  0  0  0
    8.0128   45.4822   54.4467 H   0  0  0  0  0  0  0  0  0  0  0  0
   10.2855   45.5690   53.4193 H   0  0  0  0  0  0  0  0  0  0  0  0
   10.7394   47.1183   51.5155 H   0  0  0  0  0  0  0  0  0  0  0  0
    8.9140   48.5694   50.6233 H   0  0  0  0  0  0  0  0  0  0  0  0
    6.6448   48.5029   51.6577 H   0  0  0  0  0  0  0  0  0  0  0  0
  1  2  1  0
  2  3  1  0
  2  4  1  0
  2  5  1  0
  5  6  1  0
  6  7  1  0
  7  8  1  0
  8  9  2  0
  8 10  1  0
 10 11  2  0
 11 12  1  0
 12 13  1  0
 13 14  1  0
 14 15  1  0
 12 16  2  0
 16 17  1  0
 17 18  1  0
 18 19  1  0
 19 20  2  0
 20 21  1  0
 21 22  2  0
 22 23  1  0
 23 24  2  0
 24 25  1  0
 25 26  2  0
 20 27  1  0
 27 10  1  0
 15 13  1  0
 27 17  2  0
 26 21  1  0
  1 28  1  0
  1 29  1  0
  1 30  1  0
  3 31  1  0
  3 32  1  0
  3 33  1  0
  4 34  1  0
  5 35  1  0
  5 36  1  0
  7 37  1  0
 11 38  1  0
 13 39  1  0
 14 40  1  0
 14 41  1  0
 15 42  1  0
 15 43  1  0
 22 44  1  0
 23 45  1  0
 24 46  1  0
 25 47  1  0
 26 48  1  0
M  END
>  <meeko>  (5) 
{"is_sidechain": [false], "free_energy": -8.13, "intermolecular_energy": -11.503, "internal_energy": -0.64}

$$$$
