MODEL 1
REMARK VINA RESULT:    -8.608      0.000      0.000
REMARK INTER + INTRA:         -10.709
REMARK INTER:                 -10.118
REMARK INTRA:                  -0.591
REMARK UNBOUND:                -0.591
REMARK SMILES CN1CCc2ccc(NC(=O)CN3CCCNC3=O)cc2C1=O
REMARK SMILES IDX 9 1 10 2 11 3 8 5 2 6 3 7 22 8 4 9 21 10 23 11 5 12 20 13
REMARK SMILES IDX 6 14 7 15 1 16 12 17 13 18 14 19 18 20 15 21 17 22 19 23
REMARK SMILES IDX 16 24
REMARK H PARENT 9 4 17 25
ROOT
ATOM      1  N   UNL     1       3.899  44.287  51.791  1.00  0.00    -0.325 N 
ATOM      2  C   UNL     1       2.744  44.876  51.175  1.00  0.00     0.244 C 
ATOM      3  O   UNL     1       2.749  46.089  50.828  1.00  0.00    -0.273 OA
ATOM      4  H   UNL     1       3.766  43.410  52.342  1.00  0.00     0.169 HD
ENDROOT
BRANCH   1   5
ATOM      5  C   UNL     1       5.210  44.877  51.766  1.00  0.00     0.042 A 
ATOM      6  N   UNL     1       8.949  47.271  53.963  1.00  0.00    -0.341 N 
ATOM      7  C   UNL     1       9.826  46.748  52.907  1.00  0.00     0.124 C 
ATOM      8  C   UNL     1       7.577  46.840  54.003  1.00  0.00     0.253 C 
ATOM      9  C   UNL     1       9.103  46.754  51.555  1.00  0.00     0.058 C 
ATOM     10  C   UNL     1       7.008  46.136  52.835  1.00  0.00     0.045 A 
ATOM     11  O   UNL     1       6.866  47.075  55.018  1.00  0.00    -0.269 OA
ATOM     12  C   UNL     1       7.765  46.060  51.649  1.00  0.00    -0.033 A 
ATOM     13  C   UNL     1       5.733  45.547  52.887  1.00  0.00     0.040 A 
ATOM     14  C   UNL     1       7.223  45.429  50.522  1.00  0.00     0.007 A 
ATOM     15  C   UNL     1       5.957  44.842  50.582  1.00  0.00     0.026 A 
ATOM     16  C   UNL     1       9.468  48.175  54.993  1.00  0.00     0.147 C 
ENDBRANCH   1   5
BRANCH   2  17
ATOM     17  C   UNL     1       1.520  44.049  50.924  1.00  0.00     0.221 C 
BRANCH  17  18
ATOM     18  N   UNL     1       0.589  44.188  52.049  1.00  0.00    -0.315 N 
ATOM     19  C   UNL     1      -0.445  45.229  52.019  1.00  0.00     0.124 C 
ATOM     20  C   UNL     1       0.689  43.327  53.200  1.00  0.00     0.317 C 
ATOM     21  C   UNL     1      -1.721  44.747  52.714  1.00  0.00     0.043 C 
ATOM     22  N   UNL     1      -0.336  43.350  54.199  1.00  0.00    -0.338 N 
ATOM     23  O   UNL     1       1.659  42.530  53.323  1.00  0.00    -0.249 OA
ATOM     24  C   UNL     1      -1.415  44.334  54.157  1.00  0.00     0.119 C 
ATOM     25  H   UNL     1      -0.246  42.735  55.038  1.00  0.00     0.165 HD
ENDBRANCH  17  18
ENDBRANCH   2  17
TORSDOF 3
ENDMDL
MODEL 2
REMARK VINA RESULT:    -8.491      1.125      1.490
REMARK INTER + INTRA:         -10.571
REMARK INTER:                 -10.163
REMARK INTRA:                  -0.408
REMARK UNBOUND:                -0.591
REMARK SMILES CN1CCc2ccc(NC(=O)CN3CCCNC3=O)cc2C1=O
REMARK SMILES IDX 9 1 10 2 11 3 8 5 2 6 3 7 22 8 4 9 21 10 23 11 5 12 20 13
REMARK SMILES IDX 6 14 7 15 1 16 12 17 13 18 14 19 18 20 15 21 17 22 19 23
REMARK SMILES IDX 16 24
REMARK H PARENT 9 4 17 25
ROOT
ATOM      1  N   UNL     1       3.928  44.456  51.803  1.00  0.00    -0.325 N 
ATOM      2  C   UNL     1       2.750  45.212  51.484  1.00  0.00     0.244 C 
ATOM      3  O   UNL     1       2.787  46.472  51.441  1.00  0.00    -0.273 OA
ATOM      4  H   UNL     1       3.804  43.475  52.139  1.00  0.00     0.169 HD
ENDROOT
BRANCH   1   5
ATOM      5  C   UNL     1       5.261  44.995  51.769  1.00  0.00     0.042 A 
ATOM      6  N   UNL     1       9.124  47.196  53.954  1.00  0.00    -0.341 N 
ATOM      7  C   UNL     1       9.962  46.661  52.874  1.00  0.00     0.124 C 
ATOM      8  C   UNL     1       7.737  46.818  54.007  1.00  0.00     0.253 C 
ATOM      9  C   UNL     1       9.220  46.724  51.534  1.00  0.00     0.058 C 
ATOM     10  C   UNL     1       7.122  46.160  52.834  1.00  0.00     0.045 A 
ATOM     11  O   UNL     1       7.051  47.059  55.038  1.00  0.00    -0.269 OA
ATOM     12  C   UNL     1       7.858  46.080  51.635  1.00  0.00    -0.033 A 
ATOM     13  C   UNL     1       5.826  45.621  52.894  1.00  0.00     0.040 A 
ATOM     14  C   UNL     1       7.275  45.494  50.504  1.00  0.00     0.007 A 
ATOM     15  C   UNL     1       5.987  44.956  50.572  1.00  0.00     0.026 A 
ATOM     16  C   UNL     1       9.693  48.057  54.993  1.00  0.00     0.147 C 
ENDBRANCH   1   5
BRANCH   2  17
ATOM     17  C   UNL     1       1.462  44.508  51.186  1.00  0.00     0.221 C 
BRANCH  17  18
ATOM     18  N   UNL     1       0.657  44.406  52.409  1.00  0.00    -0.315 N 
ATOM     19  C   UNL     1       1.135  43.593  53.534  1.00  0.00     0.124 C 
ATOM     20  C   UNL     1      -0.613  45.077  52.514  1.00  0.00     0.317 C 
ATOM     21  C   UNL     1       0.720  44.215  54.869  1.00  0.00     0.043 C 
ATOM     22  N   UNL     1      -1.293  45.121  53.773  1.00  0.00    -0.338 N 
ATOM     23  O   UNL     1      -1.119  45.652  51.513  1.00  0.00    -0.249 OA
ATOM     24  C   UNL     1      -0.802  44.375  54.928  1.00  0.00     0.119 C 
ATOM     25  H   UNL     1      -2.222  45.595  53.835  1.00  0.00     0.165 HD
ENDBRANCH  17  18
ENDBRANCH   2  17
TORSDOF 3
ENDMDL
MODEL 3
REMARK VINA RESULT:    -8.269      1.446      2.010
REMARK INTER + INTRA:         -10.310
REMARK INTER:                  -9.781
REMARK INTRA:                  -0.528
REMARK UNBOUND:                -0.591
REMARK SMILES CN1CCc2ccc(NC(=O)CN3CCCNC3=O)cc2C1=O
REMARK SMILES IDX 9 1 10 2 11 3 8 5 2 6 3 7 22 8 4 9 21 10 23 11 5 12 20 13
REMARK SMILES IDX 6 14 7 15 1 16 12 17 13 18 14 19 18 20 15 21 17 22 19 23
REMARK SMILES IDX 16 24
REMARK H PARENT 9 4 17 25
ROOT
ATOM      1  N   UNL     1       3.039  43.932  53.498  1.00  0.00    -0.325 N 
ATOM      2  C   UNL     1       1.823  44.680  53.652  1.00  0.00     0.244 C 
ATOM      3  O   UNL     1       1.817  45.933  53.510  1.00  0.00    -0.273 OA
ATOM      4  H   UNL     1       3.083  42.978  53.923  1.00  0.00     0.169 HD
ENDROOT
BRANCH   1   5
ATOM      5  C   UNL     1       4.225  44.449  52.871  1.00  0.00     0.042 A 
ATOM      6  N   UNL     1       8.647  46.671  53.085  1.00  0.00    -0.341 N 
ATOM      7  C   UNL     1       8.939  46.084  51.771  1.00  0.00     0.124 C 
ATOM      8  C   UNL     1       7.420  46.316  53.746  1.00  0.00     0.253 C 
ATOM      9  C   UNL     1       7.691  46.107  50.881  1.00  0.00     0.058 C 
ATOM     10  C   UNL     1       6.361  45.625  52.981  1.00  0.00     0.045 A 
ATOM     11  O   UNL     1       7.245  46.607  54.962  1.00  0.00    -0.269 OA
ATOM     12  C   UNL     1       6.507  45.488  51.586  1.00  0.00    -0.033 A 
ATOM     13  C   UNL     1       5.219  45.108  53.616  1.00  0.00     0.040 A 
ATOM     14  C   UNL     1       5.494  44.869  50.842  1.00  0.00     0.007 A 
ATOM     15  C   UNL     1       4.364  44.353  51.481  1.00  0.00     0.026 A 
ATOM     16  C   UNL     1       9.607  47.562  53.741  1.00  0.00     0.147 C 
ENDBRANCH   1   5
BRANCH   2  17
ATOM     17  C   UNL     1       0.540  43.974  53.971  1.00  0.00     0.221 C 
BRANCH  17  18
ATOM     18  N   UNL     1      -0.374  44.066  52.827  1.00  0.00    -0.315 N 
ATOM     19  C   UNL     1      -1.653  44.774  52.967  1.00  0.00     0.124 C 
ATOM     20  C   UNL     1      -0.044  43.449  51.568  1.00  0.00     0.317 C 
ATOM     21  C   UNL     1      -2.029  45.477  51.661  1.00  0.00     0.043 C 
ATOM     22  N   UNL     1      -0.853  43.705  50.415  1.00  0.00    -0.338 N 
ATOM     23  O   UNL     1       0.969  42.706  51.464  1.00  0.00    -0.249 OA
ATOM     24  C   UNL     1      -2.097  44.464  50.514  1.00  0.00     0.119 C 
ATOM     25  H   UNL     1      -0.616  43.239  49.510  1.00  0.00     0.165 HD
ENDBRANCH  17  18
ENDBRANCH   2  17
TORSDOF 3
ENDMDL
MODEL 4
REMARK VINA RESULT:    -8.129      2.039      2.635
REMARK INTER + INTRA:         -10.145
REMARK INTER:                  -9.665
REMARK INTRA:                  -0.480
REMARK UNBOUND:                -0.591
REMARK SMILES CN1CCc2ccc(NC(=O)CN3CCCNC3=O)cc2C1=O
REMARK SMILES IDX 9 1 10 2 11 3 8 5 2 6 3 7 22 8 4 9 21 10 23 11 5 12 20 13
REMARK SMILES IDX 6 14 7 15 1 16 12 17 13 18 14 19 18 20 15 21 17 22 19 23
REMARK SMILES IDX 16 24
REMARK H PARENT 9 4 17 25
ROOT
ATOM      1  N   UNL     1       3.127  43.819  53.568  1.00  0.00    -0.325 N 
ATOM      2  C   UNL     1       1.880  44.521  53.688  1.00  0.00     0.244 C 
ATOM      3  O   UNL     1       1.820  45.764  53.479  1.00  0.00    -0.273 OA
ATOM      4  H   UNL     1       3.213  42.892  54.043  1.00  0.00     0.169 HD
ENDROOT
BRANCH   1   5
ATOM      5  C   UNL     1       4.288  44.352  52.909  1.00  0.00     0.042 A 
ATOM      6  N   UNL     1       8.659  46.680  52.996  1.00  0.00    -0.341 N 
ATOM      7  C   UNL     1       8.940  46.076  51.687  1.00  0.00     0.124 C 
ATOM      8  C   UNL     1       7.454  46.309  53.687  1.00  0.00     0.253 C 
ATOM      9  C   UNL     1       7.675  46.053  50.822  1.00  0.00     0.058 C 
ATOM     10  C   UNL     1       6.397  45.579  52.955  1.00  0.00     0.045 A 
ATOM     11  O   UNL     1       7.296  46.618  54.900  1.00  0.00    -0.269 OA
ATOM     12  C   UNL     1       6.519  45.420  51.560  1.00  0.00    -0.033 A 
ATOM     13  C   UNL     1       5.280  45.047  53.622  1.00  0.00     0.040 A 
ATOM     14  C   UNL     1       5.508  44.764  50.848  1.00  0.00     0.007 A 
ATOM     15  C   UNL     1       4.402  44.234  51.518  1.00  0.00     0.026 A 
ATOM     16  C   UNL     1       9.610  47.605  53.617  1.00  0.00     0.147 C 
ENDBRANCH   1   5
BRANCH   2  17
ATOM     17  C   UNL     1       0.630  43.779  54.050  1.00  0.00     0.221 C 
BRANCH  17  18
ATOM     18  N   UNL     1      -0.100  44.515  55.088  1.00  0.00    -0.315 N 
ATOM     19  C   UNL     1       0.501  44.698  56.415  1.00  0.00     0.124 C 
ATOM     20  C   UNL     1      -1.415  45.044  54.831  1.00  0.00     0.317 C 
ATOM     21  C   UNL     1       0.103  46.052  57.009  1.00  0.00     0.043 C 
ATOM     22  N   UNL     1      -2.032  45.915  55.785  1.00  0.00    -0.338 N 
ATOM     23  O   UNL     1      -2.018  44.770  53.758  1.00  0.00    -0.249 OA
ATOM     24  C   UNL     1      -1.422  46.168  57.088  1.00  0.00     0.119 C 
ATOM     25  H   UNL     1      -2.993  46.280  55.598  1.00  0.00     0.165 HD
ENDBRANCH  17  18
ENDBRANCH   2  17
TORSDOF 3
ENDMDL
MODEL 5
REMARK VINA RESULT:    -7.138      3.242      7.693
REMARK INTER + INTRA:          -8.981
REMARK INTER:                  -8.365
REMARK INTRA:                  -0.616
REMARK UNBOUND:                -0.591
REMARK SMILES CN1CCc2ccc(NC(=O)CN3CCCNC3=O)cc2C1=O
REMARK SMILES IDX 9 1 10 2 11 3 8 5 2 6 3 7 22 8 4 9 21 10 23 11 5 12 20 13
REMARK SMILES IDX 6 14 7 15 1 16 12 17 13 18 14 19 18 20 15 21 17 22 19 23
REMARK SMILES IDX 16 24
REMARK H PARENT 9 4 17 25
ROOT
ATOM      1  N   UNL     1       2.327  43.742  54.082  1.00  0.00    -0.325 N 
ATOM      2  C   UNL     1       3.034  44.392  53.014  1.00  0.00     0.244 C 
ATOM      3  O   UNL     1       2.535  45.391  52.428  1.00  0.00    -0.273 OA
ATOM      4  H   UNL     1       2.599  42.762  54.323  1.00  0.00     0.169 HD
ENDROOT
BRANCH   1   5
ATOM      5  C   UNL     1       1.214  44.326  54.779  1.00  0.00     0.042 A 
ATOM      6  N   UNL     1      -0.665  47.282  58.282  1.00  0.00    -0.341 N 
ATOM      7  C   UNL     1      -1.915  47.300  57.511  1.00  0.00     0.124 C 
ATOM      8  C   UNL     1       0.481  46.611  57.729  1.00  0.00     0.253 C 
ATOM      9  C   UNL     1      -2.198  45.919  56.910  1.00  0.00     0.058 C 
ATOM     10  C   UNL     1       0.302  45.716  56.566  1.00  0.00     0.045 A 
ATOM     11  O   UNL     1       1.622  46.775  58.241  1.00  0.00    -0.269 OA
ATOM     12  C   UNL     1      -1.005  45.404  56.141  1.00  0.00    -0.033 A 
ATOM     13  C   UNL     1       1.405  45.172  55.886  1.00  0.00     0.040 A 
ATOM     14  C   UNL     1      -1.191  44.527  55.065  1.00  0.00     0.007 A 
ATOM     15  C   UNL     1      -0.090  43.994  54.390  1.00  0.00     0.026 A 
ATOM     16  C   UNL     1      -0.563  47.976  59.567  1.00  0.00     0.147 C 
ENDBRANCH   1   5
BRANCH   2  17
ATOM     17  C   UNL     1       4.384  43.895  52.593  1.00  0.00     0.221 C 
BRANCH  17  18
ATOM     18  N   UNL     1       5.409  44.883  52.950  1.00  0.00    -0.315 N 
ATOM     19  C   UNL     1       6.144  45.589  51.894  1.00  0.00     0.124 C 
ATOM     20  C   UNL     1       5.722  45.154  54.330  1.00  0.00     0.317 C 
ATOM     21  C   UNL     1       6.472  47.021  52.325  1.00  0.00     0.043 C 
ATOM     22  N   UNL     1       6.585  46.247  54.663  1.00  0.00    -0.338 N 
ATOM     23  O   UNL     1       5.220  44.455  55.251  1.00  0.00    -0.249 OA
ATOM     24  C   UNL     1       7.277  47.011  53.628  1.00  0.00     0.119 C 
ATOM     25  H   UNL     1       6.820  46.426  55.665  1.00  0.00     0.165 HD
ENDBRANCH  17  18
ENDBRANCH   2  17
TORSDOF 3
ENDMDL
