MODEL 1
REMARK VINA RESULT:    -8.984      0.000      0.000
REMARK INTER + INTRA:         -11.977
REMARK INTER:                 -11.347
REMARK INTRA:                  -0.630
REMARK UNBOUND:                -0.630
REMARK SMILES Cc1c[nH]c2ncc(C(=O)N[C@H]3[C@@H]4CN(C(=O)c5ccc6nc(N)n(C)c6c5)C[C@@H]43)cc12
REMARK SMILES IDX 12 1 13 2 14 3 15 4 29 5 30 6 11 7 9 8 10 9 8 11 2 12 3 13
REMARK SMILES IDX 32 14 4 15 31 16 5 17 6 18 7 19 1 20 16 22 17 23 18 24 19 25
REMARK SMILES IDX 28 26 20 27 27 28 21 29 25 30 22 31 23 32 26 33 24 34
REMARK H PARENT 11 10 4 21 24 35 24 36
ROOT
ATOM      1  C   UNL     1       2.324  45.852  54.626  1.00  0.00     0.093 C 
ATOM      2  C   UNL     1       1.398  44.649  54.498  1.00  0.00     0.038 C 
ATOM      3  C   UNL     1      -0.084  44.923  54.704  1.00  0.00     0.126 C 
ATOM      4  N   UNL     1      -0.227  45.392  56.073  1.00  0.00    -0.338 N 
ATOM      5  C   UNL     1       1.032  45.396  56.806  1.00  0.00     0.126 C 
ATOM      6  C   UNL     1       2.096  44.937  55.820  1.00  0.00     0.038 C 
ENDROOT
BRANCH   1   7
ATOM      7  N   UNL     1       3.611  45.645  53.970  1.00  0.00    -0.349 N 
ATOM      8  C   UNL     1       4.587  46.696  53.901  1.00  0.00     0.253 C 
ATOM      9  O   UNL     1       4.369  47.786  54.497  1.00  0.00    -0.269 OA
ATOM     10  H   UNL     1       3.868  44.675  53.682  1.00  0.00     0.164 HD
BRANCH   8  11
ATOM     11  C   UNL     1       5.853  46.514  53.155  1.00  0.00     0.058 A 
ATOM     12  C   UNL     1       9.586  46.779  53.272  1.00  0.00    -0.024 A 
ATOM     13  C   UNL     1      10.265  46.385  52.120  1.00  0.00     0.088 A 
ATOM     14  C   UNL     1       8.246  46.608  52.992  1.00  0.00     0.022 A 
ATOM     15  N   UNL     1       9.388  46.002  51.163  1.00  0.00    -0.346 N 
ATOM     16  C   UNL     1       7.100  46.804  53.756  1.00  0.00     0.027 A 
ATOM     17  C   UNL     1       8.172  46.143  51.712  1.00  0.00     0.137 A 
ATOM     18  N   UNL     1       6.989  45.846  51.120  1.00  0.00    -0.238 NA
ATOM     19  C   UNL     1       5.830  46.023  51.821  1.00  0.00     0.127 A 
ATOM     20  C   UNL     1      10.192  47.208  54.569  1.00  0.00     0.047 C 
ATOM     21  H   UNL     1       9.615  45.656  50.204  1.00  0.00     0.167 HD
ENDBRANCH   8  11
ENDBRANCH   1   7
BRANCH   4  22
ATOM     22  C   UNL     1      -1.511  45.584  56.692  1.00  0.00     0.253 C 
ATOM     23  O   UNL     1      -2.295  44.604  56.814  1.00  0.00    -0.269 OA
BRANCH  22  24
ATOM     24  C   UNL     1      -1.937  46.905  57.196  1.00  0.00     0.042 A 
ATOM     25  C   UNL     1      -2.904  47.657  56.479  1.00  0.00     0.016 A 
ATOM     26  C   UNL     1      -1.352  47.448  58.363  1.00  0.00     0.042 A 
ATOM     27  C   UNL     1      -3.313  48.922  56.937  1.00  0.00     0.031 A 
ATOM     28  C   UNL     1      -1.778  48.709  58.783  1.00  0.00     0.070 A 
ATOM     29  C   UNL     1      -2.728  49.414  58.099  1.00  0.00     0.091 A 
ATOM     30  N   UNL     1      -1.388  49.428  59.851  1.00  0.00    -0.314 N 
ATOM     31  N   UNL     1      -2.987  50.583  58.712  1.00  0.00    -0.213 NA
ATOM     32  C   UNL     1      -2.154  50.550  59.784  1.00  0.00     0.200 A 
ATOM     33  C   UNL     1      -0.452  49.046  60.907  1.00  0.00     0.153 C 
BRANCH  32  34
ATOM     34  N   UNL     1      -2.123  51.593  60.760  1.00  0.00    -0.369 N 
ATOM     35  H   UNL     1      -2.316  51.374  61.763  1.00  0.00     0.159 HD
ATOM     36  H   UNL     1      -1.893  52.576  60.498  1.00  0.00     0.159 HD
ENDBRANCH  32  34
ENDBRANCH  22  24
ENDBRANCH   4  22
TORSDOF 5
ENDMDL
MODEL 2
REMARK VINA RESULT:    -8.945      2.020      2.868
REMARK INTER + INTRA:         -11.929
REMARK INTER:                 -11.294
REMARK INTRA:                  -0.634
REMARK UNBOUND:                -0.630
REMARK SMILES Cc1c[nH]c2ncc(C(=O)N[C@H]3[C@@H]4CN(C(=O)c5ccc6nc(N)n(C)c6c5)C[C@@H]43)cc12
REMARK SMILES IDX 12 1 13 2 14 3 15 4 29 5 30 6 11 7 9 8 10 9 8 11 2 12 3 13
REMARK SMILES IDX 32 14 4 15 31 16 5 17 6 18 7 19 1 20 16 22 17 23 18 24 19 25
REMARK SMILES IDX 28 26 20 27 27 28 21 29 25 30 22 31 23 32 26 33 24 34
REMARK H PARENT 11 10 4 21 24 35 24 36
ROOT
ATOM      1  C   UNL     1       2.525  44.588  52.789  1.00  0.00     0.093 C 
ATOM      2  C   UNL     1       1.995  43.194  53.091  1.00  0.00     0.038 C 
ATOM      3  C   UNL     1       0.492  43.006  52.945  1.00  0.00     0.126 C 
ATOM      4  N   UNL     1      -0.128  43.888  53.921  1.00  0.00    -0.338 N 
ATOM      5  C   UNL     1       0.844  44.600  54.739  1.00  0.00     0.126 C 
ATOM      6  C   UNL     1       2.215  44.187  54.223  1.00  0.00     0.038 C 
ENDROOT
BRANCH   1   7
ATOM      7  N   UNL     1       3.952  44.594  52.481  1.00  0.00    -0.349 N 
ATOM      8  C   UNL     1       4.708  45.814  52.489  1.00  0.00     0.253 C 
ATOM      9  O   UNL     1       4.155  46.886  52.858  1.00  0.00    -0.269 OA
ATOM     10  H   UNL     1       4.444  43.677  52.400  1.00  0.00     0.164 HD
BRANCH   8  11
ATOM     11  C   UNL     1       6.133  45.832  52.086  1.00  0.00     0.058 A 
ATOM     12  C   UNL     1       9.626  46.742  53.081  1.00  0.00    -0.024 A 
ATOM     13  C   UNL     1      10.626  46.437  52.159  1.00  0.00     0.088 A 
ATOM     14  C   UNL     1       8.444  46.333  52.499  1.00  0.00     0.022 A 
ATOM     15  N   UNL     1      10.090  45.879  51.048  1.00  0.00    -0.346 N 
ATOM     16  C   UNL     1       7.128  46.352  52.947  1.00  0.00     0.027 A 
ATOM     17  C   UNL     1       8.768  45.824  51.276  1.00  0.00     0.137 A 
ATOM     18  N   UNL     1       7.835  45.310  50.438  1.00  0.00    -0.238 NA
ATOM     19  C   UNL     1       6.524  45.305  50.824  1.00  0.00     0.127 A 
ATOM     20  C   UNL     1       9.812  47.308  54.452  1.00  0.00     0.047 C 
ATOM     21  H   UNL     1      10.602  45.548  50.200  1.00  0.00     0.167 HD
ENDBRANCH   8  11
ENDBRANCH   1   7
BRANCH   4  22
ATOM     22  C   UNL     1      -1.538  43.855  54.204  1.00  0.00     0.253 C 
ATOM     23  O   UNL     1      -2.340  43.448  53.320  1.00  0.00    -0.269 OA
BRANCH  22  24
ATOM     24  C   UNL     1      -2.074  44.285  55.511  1.00  0.00     0.042 A 
ATOM     25  C   UNL     1      -2.426  43.315  56.484  1.00  0.00     0.016 A 
ATOM     26  C   UNL     1      -2.284  45.657  55.781  1.00  0.00     0.042 A 
ATOM     27  C   UNL     1      -2.949  43.704  57.730  1.00  0.00     0.031 A 
ATOM     28  C   UNL     1      -2.811  46.006  57.026  1.00  0.00     0.070 A 
ATOM     29  C   UNL     1      -3.124  45.065  57.965  1.00  0.00     0.091 A 
ATOM     30  N   UNL     1      -3.091  47.224  57.521  1.00  0.00    -0.314 N 
ATOM     31  N   UNL     1      -3.589  45.646  59.086  1.00  0.00    -0.213 NA
ATOM     32  C   UNL     1      -3.545  46.967  58.777  1.00  0.00     0.200 A 
ATOM     33  C   UNL     1      -2.852  48.529  56.907  1.00  0.00     0.153 C 
BRANCH  32  34
ATOM     34  N   UNL     1      -3.915  47.983  59.712  1.00  0.00    -0.369 N 
ATOM     35  H   UNL     1      -4.720  48.615  59.504  1.00  0.00     0.159 HD
ATOM     36  H   UNL     1      -3.408  48.102  60.615  1.00  0.00     0.159 HD
ENDBRANCH  32  34
ENDBRANCH  22  24
ENDBRANCH   4  22
TORSDOF 5
ENDMDL
MODEL 3
REMARK VINA RESULT:    -8.490      5.104      7.590
REMARK INTER + INTRA:         -11.353
REMARK INTER:                 -10.712
REMARK INTRA:                  -0.641
REMARK UNBOUND:                -0.630
REMARK SMILES Cc1c[nH]c2ncc(C(=O)N[C@H]3[C@@H]4CN(C(=O)c5ccc6nc(N)n(C)c6c5)C[C@@H]43)cc12
REMARK SMILES IDX 12 1 13 2 14 3 15 4 29 5 30 6 11 7 9 8 10 9 8 11 2 12 3 13
REMARK SMILES IDX 32 14 4 15 31 16 5 17 6 18 7 19 1 20 16 22 17 23 18 24 19 25
REMARK SMILES IDX 28 26 20 27 27 28 21 29 25 30 22 31 23 32 26 33 24 34
REMARK H PARENT 11 10 4 21 24 35 24 36
ROOT
ATOM      1  C   UNL     1       2.250  44.979  52.874  1.00  0.00     0.093 C 
ATOM      2  C   UNL     1       2.094  43.465  52.864  1.00  0.00     0.038 C 
ATOM      3  C   UNL     1       1.070  42.906  51.886  1.00  0.00     0.126 C 
ATOM      4  N   UNL     1      -0.220  43.436  52.296  1.00  0.00    -0.338 N 
ATOM      5  C   UNL     1      -0.140  44.253  53.500  1.00  0.00     0.126 C 
ATOM      6  C   UNL     1       1.332  44.302  53.881  1.00  0.00     0.038 C 
ENDROOT
BRANCH   1   7
ATOM      7  N   UNL     1       3.522  45.411  53.444  1.00  0.00    -0.349 N 
ATOM      8  C   UNL     1       4.513  46.064  52.636  1.00  0.00     0.253 C 
ATOM      9  O   UNL     1       4.247  46.354  51.438  1.00  0.00    -0.269 OA
ATOM     10  H   UNL     1       3.639  45.370  54.480  1.00  0.00     0.164 HD
BRANCH   8  11
ATOM     11  C   UNL     1       5.839  46.417  53.193  1.00  0.00     0.058 A 
ATOM     12  C   UNL     1       9.545  46.354  52.657  1.00  0.00    -0.024 A 
ATOM     13  C   UNL     1      10.319  46.938  53.658  1.00  0.00     0.088 A 
ATOM     14  C   UNL     1       8.236  46.484  53.074  1.00  0.00     0.022 A 
ATOM     15  N   UNL     1       9.531  47.396  54.659  1.00  0.00    -0.346 N 
ATOM     16  C   UNL     1       7.029  46.121  52.487  1.00  0.00     0.027 A 
ATOM     17  C   UNL     1       8.274  47.112  54.284  1.00  0.00     0.137 A 
ATOM     18  N   UNL     1       7.147  47.417  54.974  1.00  0.00    -0.238 NA
ATOM     19  C   UNL     1       5.932  47.081  54.447  1.00  0.00     0.127 A 
ATOM     20  C   UNL     1      10.030  45.790  51.361  1.00  0.00     0.047 C 
ATOM     21  H   UNL     1       9.839  47.881  55.531  1.00  0.00     0.167 HD
ENDBRANCH   8  11
ENDBRANCH   1   7
BRANCH   4  22
ATOM     22  C   UNL     1      -1.457  42.987  51.717  1.00  0.00     0.253 C 
ATOM     23  O   UNL     1      -2.033  41.970  52.191  1.00  0.00    -0.269 OA
BRANCH  22  24
ATOM     24  C   UNL     1      -2.078  43.693  50.578  1.00  0.00     0.042 A 
ATOM     25  C   UNL     1      -2.635  44.984  50.765  1.00  0.00     0.016 A 
ATOM     26  C   UNL     1      -2.165  43.069  49.313  1.00  0.00     0.042 A 
ATOM     27  C   UNL     1      -3.242  45.667  49.696  1.00  0.00     0.031 A 
ATOM     28  C   UNL     1      -2.779  43.775  48.276  1.00  0.00     0.070 A 
ATOM     29  C   UNL     1      -3.290  45.028  48.461  1.00  0.00     0.091 A 
ATOM     30  N   UNL     1      -2.975  43.410  46.997  1.00  0.00    -0.314 N 
ATOM     31  N   UNL     1      -3.805  45.507  47.314  1.00  0.00    -0.213 NA
ATOM     32  C   UNL     1      -3.585  44.491  46.440  1.00  0.00     0.200 A 
ATOM     33  C   UNL     1      -2.531  42.190  46.324  1.00  0.00     0.153 C 
BRANCH  32  34
ATOM     34  N   UNL     1      -3.938  44.581  45.059  1.00  0.00    -0.369 N 
ATOM     35  H   UNL     1      -4.895  44.897  44.785  1.00  0.00     0.159 HD
ATOM     36  H   UNL     1      -3.253  44.354  44.306  1.00  0.00     0.159 HD
ENDBRANCH  32  34
ENDBRANCH  22  24
ENDBRANCH   4  22
TORSDOF 5
ENDMDL
MODEL 4
REMARK VINA RESULT:    -8.423      7.585     10.541
REMARK INTER + INTRA:         -11.269
REMARK INTER:                 -10.849
REMARK INTRA:                  -0.420
REMARK UNBOUND:                -0.630
REMARK SMILES Cc1c[nH]c2ncc(C(=O)N[C@H]3[C@@H]4CN(C(=O)c5ccc6nc(N)n(C)c6c5)C[C@@H]43)cc12
REMARK SMILES IDX 12 1 13 2 14 3 15 4 29 5 30 6 11 7 9 8 10 9 8 11 2 12 3 13
REMARK SMILES IDX 32 14 4 15 31 16 5 17 6 18 7 19 1 20 16 22 17 23 18 24 19 25
REMARK SMILES IDX 28 26 20 27 27 28 21 29 25 30 22 31 23 32 26 33 24 34
REMARK H PARENT 11 10 4 21 24 35 24 36
ROOT
ATOM      1  C   UNL     1       4.527  41.352  48.455  1.00  0.00     0.093 C 
ATOM      2  C   UNL     1       4.819  41.075  49.924  1.00  0.00     0.038 C 
ATOM      3  C   UNL     1       4.589  42.235  50.881  1.00  0.00     0.126 C 
ATOM      4  N   UNL     1       5.514  43.284  50.481  1.00  0.00    -0.338 N 
ATOM      5  C   UNL     1       6.376  42.889  49.375  1.00  0.00     0.126 C 
ATOM      6  C   UNL     1       5.947  41.483  48.986  1.00  0.00     0.038 C 
ENDROOT
BRANCH   1   7
ATOM      7  N   UNL     1       4.302  40.132  47.685  1.00  0.00    -0.349 N 
ATOM      8  C   UNL     1       3.178  40.009  46.801  1.00  0.00     0.253 C 
ATOM      9  O   UNL     1       2.422  41.002  46.614  1.00  0.00    -0.269 OA
ATOM     10  H   UNL     1       5.054  39.408  47.677  1.00  0.00     0.164 HD
BRANCH   8  11
ATOM     11  C   UNL     1       2.900  38.739  46.093  1.00  0.00     0.058 A 
ATOM     12  C   UNL     1       1.136  35.438  46.220  1.00  0.00    -0.024 A 
ATOM     13  C   UNL     1       1.272  34.626  45.095  1.00  0.00     0.088 A 
ATOM     14  C   UNL     1       1.870  36.575  45.951  1.00  0.00     0.022 A 
ATOM     15  N   UNL     1       2.066  35.223  44.175  1.00  0.00    -0.346 N 
ATOM     16  C   UNL     1       2.086  37.740  46.678  1.00  0.00     0.027 A 
ATOM     17  C   UNL     1       2.416  36.402  44.713  1.00  0.00     0.137 A 
ATOM     18  N   UNL     1       3.188  37.349  44.126  1.00  0.00    -0.238 NA
ATOM     19  C   UNL     1       3.438  38.514  44.795  1.00  0.00     0.127 A 
ATOM     20  C   UNL     1       0.295  35.168  47.425  1.00  0.00     0.047 C 
ATOM     21  H   UNL     1       2.335  34.848  43.238  1.00  0.00     0.167 HD
ENDBRANCH   8  11
ENDBRANCH   1   7
BRANCH   4  22
ATOM     22  C   UNL     1       5.715  44.474  51.264  1.00  0.00     0.253 C 
ATOM     23  O   UNL     1       6.599  45.304  50.917  1.00  0.00    -0.269 OA
BRANCH  22  24
ATOM     24  C   UNL     1       4.907  44.752  52.468  1.00  0.00     0.042 A 
ATOM     25  C   UNL     1       5.538  44.858  53.734  1.00  0.00     0.016 A 
ATOM     26  C   UNL     1       3.501  44.867  52.374  1.00  0.00     0.042 A 
ATOM     27  C   UNL     1       4.784  45.111  54.894  1.00  0.00     0.031 A 
ATOM     28  C   UNL     1       2.785  45.113  53.548  1.00  0.00     0.070 A 
ATOM     29  C   UNL     1       3.406  45.237  54.758  1.00  0.00     0.091 A 
ATOM     30  N   UNL     1       1.461  45.270  53.720  1.00  0.00    -0.314 N 
ATOM     31  N   UNL     1       2.510  45.495  55.729  1.00  0.00    -0.213 NA
ATOM     32  C   UNL     1       1.333  45.516  55.051  1.00  0.00     0.200 A 
ATOM     33  C   UNL     1       0.411  45.294  52.702  1.00  0.00     0.153 C 
BRANCH  32  34
ATOM     34  N   UNL     1       0.089  45.805  55.691  1.00  0.00    -0.369 N 
ATOM     35  H   UNL     1      -0.331  45.113  56.351  1.00  0.00     0.159 HD
ATOM     36  H   UNL     1      -0.410  46.706  55.528  1.00  0.00     0.159 HD
ENDBRANCH  32  34
ENDBRANCH  22  24
ENDBRANCH   4  22
TORSDOF 5
ENDMDL
MODEL 5
REMARK VINA RESULT:    -8.389      7.250     10.329
REMARK INTER + INTRA:         -11.226
REMARK INTER:                 -10.799
REMARK INTRA:                  -0.428
REMARK UNBOUND:                -0.630
REMARK SMILES Cc1c[nH]c2ncc(C(=O)N[C@H]3[C@@H]4CN(C(=O)c5ccc6nc(N)n(C)c6c5)C[C@@H]43)cc12
REMARK SMILES IDX 12 1 13 2 14 3 15 4 29 5 30 6 11 7 9 8 10 9 8 11 2 12 3 13
REMARK SMILES IDX 32 14 4 15 31 16 5 17 6 18 7 19 1 20 16 22 17 23 18 24 19 25
REMARK SMILES IDX 28 26 20 27 27 28 21 29 25 30 22 31 23 32 26 33 24 34
REMARK H PARENT 11 10 4 21 24 35 24 36
ROOT
ATOM      1  C   UNL     1       5.862  42.441  47.904  1.00  0.00     0.093 C 
ATOM      2  C   UNL     1       5.904  41.971  49.351  1.00  0.00     0.038 C 
ATOM      3  C   UNL     1       5.500  42.998  50.399  1.00  0.00     0.126 C 
ATOM      4  N   UNL     1       6.466  44.081  50.303  1.00  0.00    -0.338 N 
ATOM      5  C   UNL     1       7.508  43.825  49.318  1.00  0.00     0.126 C 
ATOM      6  C   UNL     1       7.169  42.487  48.680  1.00  0.00     0.038 C 
ENDROOT
BRANCH   1   7
ATOM      7  N   UNL     1       5.787  41.335  46.953  1.00  0.00    -0.349 N 
ATOM      8  C   UNL     1       5.336  41.543  45.607  1.00  0.00     0.253 C 
ATOM      9  O   UNL     1       5.088  42.714  45.208  1.00  0.00    -0.269 OA
ATOM     10  H   UNL     1       6.207  40.420  47.227  1.00  0.00     0.164 HD
BRANCH   8  11
ATOM     11  C   UNL     1       5.171  40.406  44.673  1.00  0.00     0.058 A 
ATOM     12  C   UNL     1       6.865  38.135  42.224  1.00  0.00    -0.024 A 
ATOM     13  C   UNL     1       6.066  37.148  41.649  1.00  0.00     0.088 A 
ATOM     14  C   UNL     1       6.034  38.844  43.067  1.00  0.00     0.022 A 
ATOM     15  N   UNL     1       4.794  37.248  42.101  1.00  0.00    -0.346 N 
ATOM     16  C   UNL     1       6.266  39.915  43.923  1.00  0.00     0.027 A 
ATOM     17  C   UNL     1       4.797  38.279  42.959  1.00  0.00     0.137 A 
ATOM     18  N   UNL     1       3.736  38.724  43.676  1.00  0.00    -0.238 NA
ATOM     19  C   UNL     1       3.904  39.777  44.531  1.00  0.00     0.127 A 
ATOM     20  C   UNL     1       8.335  38.323  42.033  1.00  0.00     0.047 C 
ATOM     21  H   UNL     1       3.985  36.638  41.844  1.00  0.00     0.167 HD
ENDBRANCH   8  11
ENDBRANCH   1   7
BRANCH   4  22
ATOM     22  C   UNL     1       6.516  45.155  51.258  1.00  0.00     0.253 C 
ATOM     23  O   UNL     1       7.347  46.090  51.098  1.00  0.00    -0.269 OA
BRANCH  22  24
ATOM     24  C   UNL     1       5.613  45.195  52.425  1.00  0.00     0.042 A 
ATOM     25  C   UNL     1       6.145  45.080  53.735  1.00  0.00     0.016 A 
ATOM     26  C   UNL     1       4.215  45.298  52.243  1.00  0.00     0.042 A 
ATOM     27  C   UNL     1       5.299  45.104  54.859  1.00  0.00     0.031 A 
ATOM     28  C   UNL     1       3.406  45.312  53.382  1.00  0.00     0.070 A 
ATOM     29  C   UNL     1       3.931  45.226  54.640  1.00  0.00     0.091 A 
ATOM     30  N   UNL     1       2.068  45.410  53.475  1.00  0.00    -0.314 N 
ATOM     31  N   UNL     1       2.958  45.286  55.567  1.00  0.00    -0.213 NA
ATOM     32  C   UNL     1       1.835  45.408  54.814  1.00  0.00     0.200 A 
ATOM     33  C   UNL     1       1.096  45.600  52.399  1.00  0.00     0.153 C 
BRANCH  32  34
ATOM     34  N   UNL     1       0.537  45.552  55.396  1.00  0.00    -0.369 N 
ATOM     35  H   UNL     1       0.430  45.565  56.435  1.00  0.00     0.159 HD
ATOM     36  H   UNL     1      -0.315  45.663  54.805  1.00  0.00     0.159 HD
ENDBRANCH  32  34
ENDBRANCH  22  24
ENDBRANCH   4  22
TORSDOF 5
ENDMDL
