ligand_95_conformer_1_docked
     RDKit          3D

 30 32  0  0  0  0  0  0  0  0999 V2000
    1.9490   42.9350   53.0790 N   0  0  0  0  0  0  0  0  0  0  0  0
    2.8270   42.7820   52.3420 C   0  0  0  0  0  0  0  0  0  0  0  0
    3.9210   42.5910   51.4250 C   0  0  0  0  0  0  0  0  0  0  0  0
    4.0550   41.4410   50.6380 C   0  0  0  0  0  0  0  0  0  0  0  0
    5.1870   41.4490   49.8330 C   0  0  0  0  0  0  0  0  0  0  0  0
    6.0200   42.8850   50.1040 S   0  0  0  0  0  0  0  0  0  0  0  0
    4.9490   43.5100   51.2370 C   0  0  0  0  0  0  0  0  0  0  0  0
    5.1420   45.0590   52.0470 S   0  0  0  0  0  0  0  0  0  0  0  0
    5.6610   44.8160   53.4360 O   0  0  0  0  0  0  0  0  0  0  0  0
    3.8270   45.7810   52.1320 O   0  0  0  0  0  0  0  0  0  0  0  0
    6.2780   46.0440   51.1800 N   0  0  0  0  0  0  0  0  0  0  0  0
    7.7070   45.9470   51.3350 C   0  0  0  0  0  0  0  0  0  0  0  0
    8.5120   45.2340   50.4150 C   0  0  0  0  0  0  0  0  0  0  0  0
    9.9070   45.1540   50.5910 C   0  0  0  0  0  0  0  0  0  0  0  0
   10.5230   45.7820   51.6810 C   0  0  0  0  0  0  0  0  0  0  0  0
    9.7270   46.4840   52.5810 C   0  0  0  0  0  0  0  0  0  0  0  0
    8.3560   46.5680   52.4160 C   0  0  0  0  0  0  0  0  0  0  0  0
    7.7570   47.3180   53.4610 N   0  0  0  0  0  0  0  0  0  0  0  0
    8.8390   47.7080   54.2990 C   0  0  0  0  0  0  0  0  0  0  0  0
    8.6810   48.3920   55.3430 O   0  0  0  0  0  0  0  0  0  0  0  0
   10.1650   47.2150   53.8100 C   0  0  0  0  0  0  0  0  0  0  0  0
    3.3334   40.6110   50.6554 H   0  0  0  0  0  0  0  0  0  0  0  0
    5.4875   40.6520   49.1369 H   0  0  0  0  0  0  0  0  0  0  0  0
    5.8730   46.7640   50.5430 H   0  0  0  0  0  0  0  0  0  0  0  0
    8.0430   44.7369   49.5531 H   0  0  0  0  0  0  0  0  0  0  0  0
   10.5174   44.5942   49.8671 H   0  0  0  0  0  0  0  0  0  0  0  0
   11.6122   45.7216   51.8225 H   0  0  0  0  0  0  0  0  0  0  0  0
    6.7470   47.5280   53.6150 H   0  0  0  0  0  0  0  0  0  0  0  0
   10.8472   48.0443   53.5715 H   0  0  0  0  0  0  0  0  0  0  0  0
   10.7325   46.6110   54.5333 H   0  0  0  0  0  0  0  0  0  0  0  0
  1  2  3  0
  2  3  1  0
  3  4  1  0
  4  5  2  0
  5  6  1  0
  6  7  1  0
  7  8  1  0
  8  9  2  0
  8 10  2  0
  8 11  1  0
 11 12  1  0
 12 13  2  0
 13 14  1  0
 14 15  2  0
 15 16  1  0
 16 17  2  0
 17 18  1  0
 18 19  1  0
 19 20  2  0
 19 21  1  0
  7  3  2  0
 17 12  1  0
 21 16  1  0
  4 22  1  0
  5 23  1  0
 11 24  1  0
 13 25  1  0
 14 26  1  0
 15 27  1  0
 18 28  1  0
 21 29  1  0
 21 30  1  0
M  END
>  <meeko>  (1) 
{"is_sidechain": [false], "free_energy": -8.952, "intermolecular_energy": -10.522, "internal_energy": -0.319}

$$$$
ligand_95_conformer_1_docked
     RDKit          3D

 30 32  0  0  0  0  0  0  0  0999 V2000
    9.0150   48.2960   55.3740 N   0  0  0  0  0  0  0  0  0  0  0  0
    9.0540   47.6950   54.3870 C   0  0  0  0  0  0  0  0  0  0  0  0
    9.1030   46.9450   53.1580 C   0  0  0  0  0  0  0  0  0  0  0  0
   10.3000   46.6830   52.4800 C   0  0  0  0  0  0  0  0  0  0  0  0
   10.1260   45.9580   51.3080 C   0  0  0  0  0  0  0  0  0  0  0  0
    8.4840   45.6460   51.1170 S   0  0  0  0  0  0  0  0  0  0  0  0
    7.9830   46.4210   52.5210 C   0  0  0  0  0  0  0  0  0  0  0  0
    6.3100   46.5490   53.0500 S   0  0  0  0  0  0  0  0  0  0  0  0
    6.0120   47.9880   53.3620 O   0  0  0  0  0  0  0  0  0  0  0  0
    6.0780   45.7190   54.2800 O   0  0  0  0  0  0  0  0  0  0  0  0
    5.2460   46.0090   51.7890 N   0  0  0  0  0  0  0  0  0  0  0  0
    4.3320   44.9040   51.9280 C   0  0  0  0  0  0  0  0  0  0  0  0
    3.1070   45.0300   52.6250 C   0  0  0  0  0  0  0  0  0  0  0  0
    2.2330   43.9330   52.7470 C   0  0  0  0  0  0  0  0  0  0  0  0
    2.5600   42.6960   52.1770 C   0  0  0  0  0  0  0  0  0  0  0  0
    3.7640   42.5780   51.4900 C   0  0  0  0  0  0  0  0  0  0  0  0
    4.6300   43.6510   51.3650 C   0  0  0  0  0  0  0  0  0  0  0  0
    5.7950   43.2900   50.6410 N   0  0  0  0  0  0  0  0  0  0  0  0
    5.6120   41.9180   50.3110 C   0  0  0  0  0  0  0  0  0  0  0  0
    6.4610   41.2530   49.6630 O   0  0  0  0  0  0  0  0  0  0  0  0
    4.3170   41.3630   50.8180 C   0  0  0  0  0  0  0  0  0  0  0  0
   11.2833   47.0190   52.8408 H   0  0  0  0  0  0  0  0  0  0  0  0
   10.9255   45.6418   50.6218 H   0  0  0  0  0  0  0  0  0  0  0  0
    5.3200   46.5100   50.8770 H   0  0  0  0  0  0  0  0  0  0  0  0
    2.8347   45.9954   53.0764 H   0  0  0  0  0  0  0  0  0  0  0  0
    1.2858   44.0483   53.2943 H   0  0  0  0  0  0  0  0  0  0  0  0
    1.8797   41.8367   52.2705 H   0  0  0  0  0  0  0  0  0  0  0  0
    6.6270   43.8770   50.4120 H   0  0  0  0  0  0  0  0  0  0  0  0
    3.6701   41.0195   49.9973 H   0  0  0  0  0  0  0  0  0  0  0  0
    4.4118   40.4773   51.4635 H   0  0  0  0  0  0  0  0  0  0  0  0
  1  2  3  0
  2  3  1  0
  3  4  1  0
  4  5  2  0
  5  6  1  0
  6  7  1  0
  7  8  1  0
  8  9  2  0
  8 10  2  0
  8 11  1  0
 11 12  1  0
 12 13  2  0
 13 14  1  0
 14 15  2  0
 15 16  1  0
 16 17  2  0
 17 18  1  0
 18 19  1  0
 19 20  2  0
 19 21  1  0
  7  3  2  0
 17 12  1  0
 21 16  1  0
  4 22  1  0
  5 23  1  0
 11 24  1  0
 13 25  1  0
 14 26  1  0
 15 27  1  0
 18 28  1  0
 21 29  1  0
 21 30  1  0
M  END
>  <meeko>  (2) 
{"is_sidechain": [false], "free_energy": -8.808, "intermolecular_energy": -10.231, "internal_energy": -0.44}

$$$$
ligand_95_conformer_1_docked
     RDKit          3D

 30 32  0  0  0  0  0  0  0  0999 V2000
    4.5590   42.7200   51.1850 N   0  0  0  0  0  0  0  0  0  0  0  0
    3.7970   43.1480   51.9430 C   0  0  0  0  0  0  0  0  0  0  0  0
    2.8480   43.6800   52.8860 C   0  0  0  0  0  0  0  0  0  0  0  0
    1.5240   43.2290   52.9620 C   0  0  0  0  0  0  0  0  0  0  0  0
    0.7710   43.8830   53.9300 C   0  0  0  0  0  0  0  0  0  0  0  0
    1.7520   45.0220   54.6860 S   0  0  0  0  0  0  0  0  0  0  0  0
    3.1400   44.6890   53.7990 C   0  0  0  0  0  0  0  0  0  0  0  0
    4.6780   45.5170   54.0020 S   0  0  0  0  0  0  0  0  0  0  0  0
    5.6870   44.5390   54.5350 O   0  0  0  0  0  0  0  0  0  0  0  0
    4.5420   46.6590   54.9680 O   0  0  0  0  0  0  0  0  0  0  0  0
    5.2310   46.1260   52.4730 N   0  0  0  0  0  0  0  0  0  0  0  0
    6.5940   46.0340   52.0170 C   0  0  0  0  0  0  0  0  0  0  0  0
    6.9380   45.3780   50.8110 C   0  0  0  0  0  0  0  0  0  0  0  0
    8.2790   45.3020   50.3910 C   0  0  0  0  0  0  0  0  0  0  0  0
    9.2990   45.8780   51.1590 C   0  0  0  0  0  0  0  0  0  0  0  0
    8.9560   46.5240   52.3430 C   0  0  0  0  0  0  0  0  0  0  0  0
    7.6400   46.6030   52.7640 C   0  0  0  0  0  0  0  0  0  0  0  0
    7.5360   47.2920   54.0000 N   0  0  0  0  0  0  0  0  0  0  0  0
    8.8730   47.6470   54.3360 C   0  0  0  0  0  0  0  0  0  0  0  0
    9.1700   48.2740   55.3850 O   0  0  0  0  0  0  0  0  0  0  0  0
    9.8720   47.1930   53.3170 C   0  0  0  0  0  0  0  0  0  0  0  0
    1.1195   42.4343   52.3180 H   0  0  0  0  0  0  0  0  0  0  0  0
   -0.2865   43.6890   54.1624 H   0  0  0  0  0  0  0  0  0  0  0  0
    4.5190   46.6120   51.8860 H   0  0  0  0  0  0  0  0  0  0  0  0
    6.1485   44.9225   50.1952 H   0  0  0  0  0  0  0  0  0  0  0  0
    8.5282   44.7861   49.4520 H   0  0  0  0  0  0  0  0  0  0  0  0
   10.3482   45.8210   50.8334 H   0  0  0  0  0  0  0  0  0  0  0  0
    6.6830   47.4840   54.5690 H   0  0  0  0  0  0  0  0  0  0  0  0
   10.4054   48.0402   52.8613 H   0  0  0  0  0  0  0  0  0  0  0  0
   10.6796   46.5570   53.7084 H   0  0  0  0  0  0  0  0  0  0  0  0
  1  2  3  0
  2  3  1  0
  3  4  1  0
  4  5  2  0
  5  6  1  0
  6  7  1  0
  7  8  1  0
  8  9  2  0
  8 10  2  0
  8 11  1  0
 11 12  1  0
 12 13  2  0
 13 14  1  0
 14 15  2  0
 15 16  1  0
 16 17  2  0
 17 18  1  0
 18 19  1  0
 19 20  2  0
 19 21  1  0
  7  3  2  0
 17 12  1  0
 21 16  1  0
  4 22  1  0
  5 23  1  0
 11 24  1  0
 13 25  1  0
 14 26  1  0
 15 27  1  0
 18 28  1  0
 21 29  1  0
 21 30  1  0
M  END
>  <meeko>  (3) 
{"is_sidechain": [false], "free_energy": -8.771, "intermolecular_energy": -9.998, "internal_energy": -0.629}

$$$$
ligand_95_conformer_1_docked
     RDKit          3D

 30 32  0  0  0  0  0  0  0  0999 V2000
    5.4450   43.1530   50.8040 N   0  0  0  0  0  0  0  0  0  0  0  0
    4.5280   43.7380   51.1980 C   0  0  0  0  0  0  0  0  0  0  0  0
    3.3870   44.4670   51.6880 C   0  0  0  0  0  0  0  0  0  0  0  0
    2.0880   44.2470   51.2130 C   0  0  0  0  0  0  0  0  0  0  0  0
    1.1350   45.0640   51.8070 C   0  0  0  0  0  0  0  0  0  0  0  0
    1.9090   46.0600   52.9200 S   0  0  0  0  0  0  0  0  0  0  0  0
    3.4560   45.4580   52.6630 C   0  0  0  0  0  0  0  0  0  0  0  0
    4.9000   46.0280   53.4890 S   0  0  0  0  0  0  0  0  0  0  0  0
    5.6120   44.8480   54.0880 O   0  0  0  0  0  0  0  0  0  0  0  0
    4.5400   46.9930   54.5820 O   0  0  0  0  0  0  0  0  0  0  0  0
    5.9580   46.8150   52.3590 N   0  0  0  0  0  0  0  0  0  0  0  0
    7.3950   46.7790   52.4460 C   0  0  0  0  0  0  0  0  0  0  0  0
    8.1040   47.5150   53.4250 C   0  0  0  0  0  0  0  0  0  0  0  0
    9.5100   47.4620   53.4870 C   0  0  0  0  0  0  0  0  0  0  0  0
   10.2330   46.6770   52.5790 C   0  0  0  0  0  0  0  0  0  0  0  0
    9.5300   45.9530   51.6200 C   0  0  0  0  0  0  0  0  0  0  0  0
    8.1490   45.9990   51.5520 C   0  0  0  0  0  0  0  0  0  0  0  0
    7.6590   45.1970   50.4890 N   0  0  0  0  0  0  0  0  0  0  0  0
    8.8200   44.6360   49.8880 C   0  0  0  0  0  0  0  0  0  0  0  0
    8.7700   43.8630   48.8960 O   0  0  0  0  0  0  0  0  0  0  0  0
   10.0900   45.0660   50.5540 C   0  0  0  0  0  0  0  0  0  0  0  0
    1.8459   43.4991   50.4435 H   0  0  0  0  0  0  0  0  0  0  0  0
    0.0572   45.0605   51.5871 H   0  0  0  0  0  0  0  0  0  0  0  0
    5.4970   47.3670   51.6040 H   0  0  0  0  0  0  0  0  0  0  0  0
    7.5508   48.1353   54.1455 H   0  0  0  0  0  0  0  0  0  0  0  0
   10.0447   48.0413   54.2541 H   0  0  0  0  0  0  0  0  0  0  0  0
   11.3313   46.6338   52.6230 H   0  0  0  0  0  0  0  0  0  0  0  0
    6.6720   45.0560   50.1820 H   0  0  0  0  0  0  0  0  0  0  0  0
   10.6388   44.2124   50.9785 H   0  0  0  0  0  0  0  0  0  0  0  0
   10.8253   45.5436   49.8898 H   0  0  0  0  0  0  0  0  0  0  0  0
  1  2  3  0
  2  3  1  0
  3  4  1  0
  4  5  2  0
  5  6  1  0
  6  7  1  0
  7  8  1  0
  8  9  2  0
  8 10  2  0
  8 11  1  0
 11 12  1  0
 12 13  2  0
 13 14  1  0
 14 15  2  0
 15 16  1  0
 16 17  2  0
 17 18  1  0
 18 19  1  0
 19 20  2  0
 19 21  1  0
  7  3  2  0
 17 12  1  0
 21 16  1  0
  4 22  1  0
  5 23  1  0
 11 24  1  0
 13 25  1  0
 14 26  1  0
 15 27  1  0
 18 28  1  0
 21 29  1  0
 21 30  1  0
M  END
>  <meeko>  (4) 
{"is_sidechain": [false], "free_energy": -8.729, "intermolecular_energy": -9.795, "internal_energy": -0.783}

$$$$
ligand_95_conformer_1_docked
     RDKit          3D

 30 32  0  0  0  0  0  0  0  0999 V2000
    5.7940   45.2550   55.6530 N   0  0  0  0  0  0  0  0  0  0  0  0
    4.6950   45.2690   55.2920 C   0  0  0  0  0  0  0  0  0  0  0  0
    3.3270   45.2880   54.8430 C   0  0  0  0  0  0  0  0  0  0  0  0
    2.2420   45.3420   55.7260 C   0  0  0  0  0  0  0  0  0  0  0  0
    1.0080   45.3360   55.0890 C   0  0  0  0  0  0  0  0  0  0  0  0
    1.2680   45.2600   53.4290 S   0  0  0  0  0  0  0  0  0  0  0  0
    2.9470   45.2430   53.5050 C   0  0  0  0  0  0  0  0  0  0  0  0
    4.0100   45.1550   52.1070 S   0  0  0  0  0  0  0  0  0  0  0  0
    3.1940   45.3820   50.8660 O   0  0  0  0  0  0  0  0  0  0  0  0
    4.6690   43.8080   52.0250 O   0  0  0  0  0  0  0  0  0  0  0  0
    5.2340   46.3820   52.2140 N   0  0  0  0  0  0  0  0  0  0  0  0
    6.6120   46.1750   51.8510 C   0  0  0  0  0  0  0  0  0  0  0  0
    6.9790   45.4720   50.6790 C   0  0  0  0  0  0  0  0  0  0  0  0
    8.3350   45.2830   50.3490 C   0  0  0  0  0  0  0  0  0  0  0  0
    9.3460   45.7920   51.1740 C   0  0  0  0  0  0  0  0  0  0  0  0
    8.9790   46.4870   52.3230 C   0  0  0  0  0  0  0  0  0  0  0  0
    7.6500   46.6760   52.6560 C   0  0  0  0  0  0  0  0  0  0  0  0
    7.5210   47.3950   53.8730 N   0  0  0  0  0  0  0  0  0  0  0  0
    8.8580   47.6510   54.2900 C   0  0  0  0  0  0  0  0  0  0  0  0
    9.1350   48.2740   55.3470 O   0  0  0  0  0  0  0  0  0  0  0  0
    9.8810   47.1010   53.3450 C   0  0  0  0  0  0  0  0  0  0  0  0
    2.3559   45.3850   56.8192 H   0  0  0  0  0  0  0  0  0  0  0  0
    0.0273   45.3744   55.5856 H   0  0  0  0  0  0  0  0  0  0  0  0
    4.9310   47.3030   52.6010 H   0  0  0  0  0  0  0  0  0  0  0  0
    6.1969   45.0689   50.0188 H   0  0  0  0  0  0  0  0  0  0  0  0
    8.6024   44.7311   49.4358 H   0  0  0  0  0  0  0  0  0  0  0  0
   10.4062   45.6458   50.9197 H   0  0  0  0  0  0  0  0  0  0  0  0
    6.6510   47.6630   54.3810 H   0  0  0  0  0  0  0  0  0  0  0  0
   10.5078   47.8951   52.9132 H   0  0  0  0  0  0  0  0  0  0  0  0
   10.6092   46.4116   53.7972 H   0  0  0  0  0  0  0  0  0  0  0  0
  1  2  3  0
  2  3  1  0
  3  4  1  0
  4  5  2  0
  5  6  1  0
  6  7  1  0
  7  8  1  0
  8  9  2  0
  8 10  2  0
  8 11  1  0
 11 12  1  0
 12 13  2  0
 13 14  1  0
 14 15  2  0
 15 16  1  0
 16 17  2  0
 17 18  1  0
 18 19  1  0
 19 20  2  0
 19 21  1  0
  7  3  2  0
 17 12  1  0
 21 16  1  0
  4 22  1  0
  5 23  1  0
 11 24  1  0
 13 25  1  0
 14 26  1  0
 15 27  1  0
 18 28  1  0
 21 29  1  0
 21 30  1  0
M  END
>  <meeko>  (5) 
{"is_sidechain": [false], "free_energy": -8.718, "intermolecular_energy": -10.011, "internal_energy": -0.555}

$$$$
