ligand_23_conformer_2_docked
     RDKit          3D

 45 47  0  0  0  0  0  0  0  0999 V2000
   -0.1630   41.5510   53.4360 C   0  0  0  0  0  0  0  0  0  0  0  0
   -0.0460   42.7550   52.4970 C   0  0  2  0  0  0  0  0  0  0  0  0
    1.3380   43.2510   52.4930 N   0  0  0  0  0  0  0  0  0  0  0  0
    2.2120   43.1180   51.3590 C   0  0  0  0  0  0  0  0  0  0  0  0
    1.9240   42.3060   50.4370 O   0  0  0  0  0  0  0  0  0  0  0  0
    3.4600   43.9130   51.2640 C   0  0  0  0  0  0  0  0  0  0  0  0
    4.7060   43.2650   51.1980 C   0  0  0  0  0  0  0  0  0  0  0  0
    5.8870   44.0070   51.0960 C   0  0  0  0  0  0  0  0  0  0  0  0
    5.8460   45.4040   51.0590 C   0  0  0  0  0  0  0  0  0  0  0  0
    7.0510   46.1100   50.9320 O   0  0  0  0  0  0  0  0  0  0  0  0
    7.9190   46.4310   51.9860 C   0  0  0  0  0  0  0  0  0  0  0  0
    7.3710   46.7760   53.2280 C   0  0  0  0  0  0  0  0  0  0  0  0
    8.2040   47.1130   54.3000 C   0  0  0  0  0  0  0  0  0  0  0  0
    9.5930   47.1210   54.1330 C   0  0  0  0  0  0  0  0  0  0  0  0
   10.6360   47.5350   55.4820 Cl  0  0  0  0  0  0  0  0  0  0  0  0
   10.1480   46.7970   52.8900 C   0  0  0  0  0  0  0  0  0  0  0  0
    9.3170   46.4620   51.8170 C   0  0  0  0  0  0  0  0  0  0  0  0
    4.6020   46.0560   51.0950 C   0  0  0  0  0  0  0  0  0  0  0  0
    3.4200   45.3170   51.2010 C   0  0  0  0  0  0  0  0  0  0  0  0
   -1.0550   43.8770   52.8670 C   0  0  2  0  0  0  0  0  0  0  0  0
   -2.4000   43.7270   52.1560 C   0  0  0  0  0  0  0  0  0  0  0  0
   -2.5890   45.0240   51.3860 C   0  0  0  0  0  0  0  0  0  0  0  0
   -1.7340   46.0340   52.0020 N   0  0  0  0  0  0  0  0  0  0  0  0
   -0.5890   45.3030   52.5400 C   0  0  0  0  0  0  0  0  0  0  0  0
   -0.1295   41.8957   54.4801 H   0  0  0  0  0  0  0  0  0  0  0  0
   -1.1157   41.0331   53.2512 H   0  0  0  0  0  0  0  0  0  0  0  0
    0.6722   40.8594   53.2512 H   0  0  0  0  0  0  0  0  0  0  0  0
   -0.3045   42.4272   51.4793 H   0  0  0  0  0  0  0  0  0  0  0  0
    1.7190   43.6780   53.3640 H   0  0  0  0  0  0  0  0  0  0  0  0
    4.7522   42.1663   51.2268 H   0  0  0  0  0  0  0  0  0  0  0  0
    6.8553   43.4877   51.0445 H   0  0  0  0  0  0  0  0  0  0  0  0
    6.2791   46.7820   53.3612 H   0  0  0  0  0  0  0  0  0  0  0  0
    7.7664   47.3720   55.2754 H   0  0  0  0  0  0  0  0  0  0  0  0
   11.2399   46.8059   52.7570 H   0  0  0  0  0  0  0  0  0  0  0  0
    9.7563   46.2218   50.8375 H   0  0  0  0  0  0  0  0  0  0  0  0
    4.5578   47.1537   51.0395 H   0  0  0  0  0  0  0  0  0  0  0  0
    2.4517   45.8378   51.2354 H   0  0  0  0  0  0  0  0  0  0  0  0
   -1.1419   43.7481   53.9560 H   0  0  0  0  0  0  0  0  0  0  0  0
   -2.3793   42.8691   51.4678 H   0  0  0  0  0  0  0  0  0  0  0  0
   -3.2219   43.5451   52.8640 H   0  0  0  0  0  0  0  0  0  0  0  0
   -2.3013   44.8806   50.3340 H   0  0  0  0  0  0  0  0  0  0  0  0
   -3.6422   45.3401   51.4161 H   0  0  0  0  0  0  0  0  0  0  0  0
   -2.2590   46.4450   52.8090 H   0  0  0  0  0  0  0  0  0  0  0  0
    0.2188   45.2710   51.7940 H   0  0  0  0  0  0  0  0  0  0  0  0
   -0.2063   45.7993   53.4440 H   0  0  0  0  0  0  0  0  0  0  0  0
  1  2  1  0
  2  3  1  0
  3  4  1  0
  4  5  2  0
  4  6  1  0
  6  7  2  0
  7  8  1  0
  8  9  2  0
  9 10  1  0
 10 11  1  0
 11 12  2  0
 12 13  1  0
 13 14  2  0
 14 15  1  0
 14 16  1  0
 16 17  2  0
  9 18  1  0
 18 19  2  0
  2 20  1  0
 20 21  1  0
 21 22  1  0
 22 23  1  0
 23 24  1  0
 19  6  1  0
 24 20  1  0
 17 11  1  0
  1 25  1  0
  1 26  1  0
  1 27  1  0
  2 28  1  6
  3 29  1  0
  7 30  1  0
  8 31  1  0
 12 32  1  0
 13 33  1  0
 16 34  1  0
 17 35  1  0
 18 36  1  0
 19 37  1  0
 20 38  1  1
 21 39  1  0
 21 40  1  0
 22 41  1  0
 22 42  1  0
 23 43  1  0
 24 44  1  0
 24 45  1  0
M  END
>  <meeko>  (1) 
{"is_sidechain": [false], "free_energy": -8.643, "intermolecular_energy": -11.169, "internal_energy": -0.762}

$$$$
ligand_23_conformer_2_docked
     RDKit          3D

 45 47  0  0  0  0  0  0  0  0999 V2000
   -0.2270   41.7800   53.5090 C   0  0  0  0  0  0  0  0  0  0  0  0
   -0.0120   43.2020   52.9810 C   0  0  2  0  0  0  0  0  0  0  0  0
    1.4220   43.4420   52.7660 N   0  0  0  0  0  0  0  0  0  0  0  0
    2.0080   43.5530   51.4580 C   0  0  0  0  0  0  0  0  0  0  0  0
    1.3690   43.1480   50.4480 O   0  0  0  0  0  0  0  0  0  0  0  0
    3.3650   44.1230   51.2790 C   0  0  0  0  0  0  0  0  0  0  0  0
    3.5430   45.5160   51.2170 C   0  0  0  0  0  0  0  0  0  0  0  0
    4.8210   46.0620   51.0610 C   0  0  0  0  0  0  0  0  0  0  0  0
    5.9410   45.2300   50.9630 C   0  0  0  0  0  0  0  0  0  0  0  0
    7.2070   45.8180   50.8320 O   0  0  0  0  0  0  0  0  0  0  0  0
    8.0330   46.2150   51.8940 C   0  0  0  0  0  0  0  0  0  0  0  0
    7.4410   46.5400   53.1210 C   0  0  0  0  0  0  0  0  0  0  0  0
    8.2300   46.9520   54.2000 C   0  0  0  0  0  0  0  0  0  0  0  0
    9.6180   47.0550   54.0550 C   0  0  0  0  0  0  0  0  0  0  0  0
   10.6060   47.5620   55.4130 Cl  0  0  0  0  0  0  0  0  0  0  0  0
   10.2150   46.7520   52.8260 C   0  0  0  0  0  0  0  0  0  0  0  0
    9.4270   46.3420   51.7460 C   0  0  0  0  0  0  0  0  0  0  0  0
    5.7720   43.8380   51.0540 C   0  0  0  0  0  0  0  0  0  0  0  0
    4.4950   43.2890   51.2070 C   0  0  0  0  0  0  0  0  0  0  0  0
   -0.6370   44.2690   53.9220 C   0  0  2  0  0  0  0  0  0  0  0  0
    0.4040   45.1930   54.5520 C   0  0  0  0  0  0  0  0  0  0  0  0
    0.2190   45.0360   56.0520 C   0  0  0  0  0  0  0  0  0  0  0  0
   -1.1250   44.5130   56.2800 N   0  0  0  0  0  0  0  0  0  0  0  0
   -1.4350   43.7030   55.1050 C   0  0  0  0  0  0  0  0  0  0  0  0
   -0.2250   41.7931   54.6089 H   0  0  0  0  0  0  0  0  0  0  0  0
   -1.1932   41.3972   53.1486 H   0  0  0  0  0  0  0  0  0  0  0  0
    0.5829   41.1287   53.1486 H   0  0  0  0  0  0  0  0  0  0  0  0
   -0.5318   43.2959   52.0161 H   0  0  0  0  0  0  0  0  0  0  0  0
    2.0510   43.4910   53.5970 H   0  0  0  0  0  0  0  0  0  0  0  0
    2.6705   46.1816   51.2918 H   0  0  0  0  0  0  0  0  0  0  0  0
    4.9463   47.1539   51.0150 H   0  0  0  0  0  0  0  0  0  0  0  0
    6.3493   46.4709   53.2368 H   0  0  0  0  0  0  0  0  0  0  0  0
    7.7588   47.1953   55.1637 H   0  0  0  0  0  0  0  0  0  0  0  0
   11.3055   46.8365   52.7094 H   0  0  0  0  0  0  0  0  0  0  0  0
    9.8981   46.1180   50.7776 H   0  0  0  0  0  0  0  0  0  0  0  0
    6.6493   43.1763   51.0046 H   0  0  0  0  0  0  0  0  0  0  0  0
    4.3736   42.1976   51.2715 H   0  0  0  0  0  0  0  0  0  0  0  0
   -1.3079   44.8053   53.2348 H   0  0  0  0  0  0  0  0  0  0  0  0
    1.4189   44.8904   54.2546 H   0  0  0  0  0  0  0  0  0  0  0  0
    0.2771   46.2368   54.2288 H   0  0  0  0  0  0  0  0  0  0  0  0
    0.9668   44.3346   56.4505 H   0  0  0  0  0  0  0  0  0  0  0  0
    0.3479   46.0032   56.5599 H   0  0  0  0  0  0  0  0  0  0  0  0
   -1.7850   45.3270   56.2910 H   0  0  0  0  0  0  0  0  0  0  0  0
   -1.1465   42.6568   55.2848 H   0  0  0  0  0  0  0  0  0  0  0  0
   -2.5135   43.7331   54.8909 H   0  0  0  0  0  0  0  0  0  0  0  0
  1  2  1  0
  2  3  1  0
  3  4  1  0
  4  5  2  0
  4  6  1  0
  6  7  2  0
  7  8  1  0
  8  9  2  0
  9 10  1  0
 10 11  1  0
 11 12  2  0
 12 13  1  0
 13 14  2  0
 14 15  1  0
 14 16  1  0
 16 17  2  0
  9 18  1  0
 18 19  2  0
  2 20  1  0
 20 21  1  0
 21 22  1  0
 22 23  1  0
 23 24  1  0
 19  6  1  0
 24 20  1  0
 17 11  1  0
  1 25  1  0
  1 26  1  0
  1 27  1  0
  2 28  1  6
  3 29  1  0
  7 30  1  0
  8 31  1  0
 12 32  1  0
 13 33  1  0
 16 34  1  0
 17 35  1  0
 18 36  1  0
 19 37  1  0
 20 38  1  6
 21 39  1  0
 21 40  1  0
 22 41  1  0
 22 42  1  0
 23 43  1  0
 24 44  1  0
 24 45  1  0
M  END
>  <meeko>  (2) 
{"is_sidechain": [false], "free_energy": -8.536, "intermolecular_energy": -11.028, "internal_energy": -0.766}

$$$$
ligand_23_conformer_2_docked
     RDKit          3D

 45 47  0  0  0  0  0  0  0  0999 V2000
   -2.4910   45.1900   53.7900 C   0  0  0  0  0  0  0  0  0  0  0  0
   -1.1740   44.4110   53.7220 C   0  0  2  0  0  0  0  0  0  0  0  0
   -0.0410   45.3470   53.7160 N   0  0  0  0  0  0  0  0  0  0  0  0
    1.1690   45.1140   54.4570 C   0  0  0  0  0  0  0  0  0  0  0  0
    1.1850   44.2500   55.3760 O   0  0  0  0  0  0  0  0  0  0  0  0
    2.3990   45.8890   54.1670 C   0  0  0  0  0  0  0  0  0  0  0  0
    3.4490   45.9250   55.1010 C   0  0  0  0  0  0  0  0  0  0  0  0
    4.6170   46.6430   54.8290 C   0  0  0  0  0  0  0  0  0  0  0  0
    4.7590   47.3380   53.6240 C   0  0  0  0  0  0  0  0  0  0  0  0
    5.9560   48.0270   53.3800 O   0  0  0  0  0  0  0  0  0  0  0  0
    7.1360   47.4540   52.8820 C   0  0  0  0  0  0  0  0  0  0  0  0
    7.0520   46.5910   51.7820 C   0  0  0  0  0  0  0  0  0  0  0  0
    8.2050   45.9920   51.2640 C   0  0  0  0  0  0  0  0  0  0  0  0
    9.4500   46.2410   51.8520 C   0  0  0  0  0  0  0  0  0  0  0  0
   10.8950   45.4950   51.1950 Cl  0  0  0  0  0  0  0  0  0  0  0  0
    9.5390   47.0850   52.9640 C   0  0  0  0  0  0  0  0  0  0  0  0
    8.3870   47.6830   53.4840 C   0  0  0  0  0  0  0  0  0  0  0  0
    3.7250   47.2820   52.6740 C   0  0  0  0  0  0  0  0  0  0  0  0
    2.5540   46.5680   52.9440 C   0  0  0  0  0  0  0  0  0  0  0  0
   -1.1310   43.4510   52.5010 C   0  0  2  0  0  0  0  0  0  0  0  0
    0.0200   42.4490   52.5690 C   0  0  0  0  0  0  0  0  0  0  0  0
    0.8240   42.6810   51.3010 C   0  0  0  0  0  0  0  0  0  0  0  0
   -0.0480   43.3480   50.3390 N   0  0  0  0  0  0  0  0  0  0  0  0
   -0.9790   44.1420   51.1380 C   0  0  0  0  0  0  0  0  0  0  0  0
   -2.7666   45.3530   54.8423 H   0  0  0  0  0  0  0  0  0  0  0  0
   -2.3688   46.1612   53.2882 H   0  0  0  0  0  0  0  0  0  0  0  0
   -3.2833   44.6152   53.2882 H   0  0  0  0  0  0  0  0  0  0  0  0
   -1.1004   43.7769   54.6178 H   0  0  0  0  0  0  0  0  0  0  0  0
   -0.1330   46.2410   53.1860 H   0  0  0  0  0  0  0  0  0  0  0  0
    3.3506   45.3838   56.0536 H   0  0  0  0  0  0  0  0  0  0  0  0
    5.4309   46.6615   55.5687 H   0  0  0  0  0  0  0  0  0  0  0  0
    6.0741   46.3832   51.3231 H   0  0  0  0  0  0  0  0  0  0  0  0
    8.1328   45.3241   50.3930 H   0  0  0  0  0  0  0  0  0  0  0  0
   10.5165   47.2785   53.4299 H   0  0  0  0  0  0  0  0  0  0  0  0
    8.4590   48.3349   54.3671 H   0  0  0  0  0  0  0  0  0  0  0  0
    3.8378   47.8033   51.7119 H   0  0  0  0  0  0  0  0  0  0  0  0
    1.7484   46.5366   52.1957 H   0  0  0  0  0  0  0  0  0  0  0  0
   -2.1132   42.9605   52.5691 H   0  0  0  0  0  0  0  0  0  0  0  0
    0.6403   42.6335   53.4585 H   0  0  0  0  0  0  0  0  0  0  0  0
   -0.3405   41.4125   52.6439 H   0  0  0  0  0  0  0  0  0  0  0  0
    1.6949   43.3161   51.5205 H   0  0  0  0  0  0  0  0  0  0  0  0
    1.1869   41.7255   50.8944 H   0  0  0  0  0  0  0  0  0  0  0  0
   -0.6010   42.6090   49.8450 H   0  0  0  0  0  0  0  0  0  0  0  0
   -0.5821   45.1586   51.2755 H   0  0  0  0  0  0  0  0  0  0  0  0
   -1.9534   44.2169   50.6331 H   0  0  0  0  0  0  0  0  0  0  0  0
  1  2  1  0
  2  3  1  0
  3  4  1  0
  4  5  2  0
  4  6  1  0
  6  7  2  0
  7  8  1  0
  8  9  2  0
  9 10  1  0
 10 11  1  0
 11 12  2  0
 12 13  1  0
 13 14  2  0
 14 15  1  0
 14 16  1  0
 16 17  2  0
  9 18  1  0
 18 19  2  0
  2 20  1  0
 20 21  1  0
 21 22  1  0
 22 23  1  0
 23 24  1  0
 19  6  1  0
 24 20  1  0
 17 11  1  0
  1 25  1  0
  1 26  1  0
  1 27  1  0
  2 28  1  1
  3 29  1  0
  7 30  1  0
  8 31  1  0
 12 32  1  0
 13 33  1  0
 16 34  1  0
 17 35  1  0
 18 36  1  0
 19 37  1  0
 20 38  1  6
 21 39  1  0
 21 40  1  0
 22 41  1  0
 22 42  1  0
 23 43  1  0
 24 44  1  0
 24 45  1  0
M  END
>  <meeko>  (3) 
{"is_sidechain": [false], "free_energy": -8.052, "intermolecular_energy": -10.334, "internal_energy": -0.834}

$$$$
ligand_23_conformer_2_docked
     RDKit          3D

 45 47  0  0  0  0  0  0  0  0999 V2000
   -1.5940   43.5400   54.4030 C   0  0  0  0  0  0  0  0  0  0  0  0
   -0.7720   44.7650   54.8150 C   0  0  2  0  0  0  0  0  0  0  0  0
    0.5830   44.6690   54.2520 N   0  0  0  0  0  0  0  0  0  0  0  0
    0.9490   45.2570   52.9920 C   0  0  0  0  0  0  0  0  0  0  0  0
    0.0500   45.6170   52.1830 O   0  0  0  0  0  0  0  0  0  0  0  0
    2.3740   45.4330   52.6210 C   0  0  0  0  0  0  0  0  0  0  0  0
    2.8470   46.6930   52.2120 C   0  0  0  0  0  0  0  0  0  0  0  0
    4.1910   46.8690   51.8730 C   0  0  0  0  0  0  0  0  0  0  0  0
    5.0860   45.7960   51.9350 C   0  0  0  0  0  0  0  0  0  0  0  0
    6.4310   46.0210   51.6090 O   0  0  0  0  0  0  0  0  0  0  0  0
    7.4340   46.4010   52.5130 C   0  0  0  0  0  0  0  0  0  0  0  0
    8.7700   46.3480   52.0980 C   0  0  0  0  0  0  0  0  0  0  0  0
    9.7990   46.7090   52.9760 C   0  0  0  0  0  0  0  0  0  0  0  0
    9.4970   47.1120   54.2810 C   0  0  0  0  0  0  0  0  0  0  0  0
   10.7880   47.5720   55.3760 Cl  0  0  0  0  0  0  0  0  0  0  0  0
    8.1660   47.1480   54.7100 C   0  0  0  0  0  0  0  0  0  0  0  0
    7.1370   46.7860   53.8350 C   0  0  0  0  0  0  0  0  0  0  0  0
    4.6250   44.5420   52.3710 C   0  0  0  0  0  0  0  0  0  0  0  0
    3.2800   44.3620   52.7070 C   0  0  0  0  0  0  0  0  0  0  0  0
   -0.7400   44.9480   56.3580 C   0  0  2  0  0  0  0  0  0  0  0  0
   -1.7340   45.9960   56.8560 C   0  0  0  0  0  0  0  0  0  0  0  0
   -0.8930   47.0200   57.5980 C   0  0  0  0  0  0  0  0  0  0  0  0
    0.3620   46.3770   57.9710 N   0  0  0  0  0  0  0  0  0  0  0  0
    0.6170   45.3820   56.9320 C   0  0  0  0  0  0  0  0  0  0  0  0
   -1.9462   43.0151   55.3032 H   0  0  0  0  0  0  0  0  0  0  0  0
   -2.4589   43.8630   53.8049 H   0  0  0  0  0  0  0  0  0  0  0  0
   -0.9673   42.8621   53.8049 H   0  0  0  0  0  0  0  0  0  0  0  0
   -1.2588   45.6624   54.4055 H   0  0  0  0  0  0  0  0  0  0  0  0
    1.3000   44.1120   54.7660 H   0  0  0  0  0  0  0  0  0  0  0  0
    2.1540   47.5456   52.1587 H   0  0  0  0  0  0  0  0  0  0  0  0
    4.5481   47.8595   51.5548 H   0  0  0  0  0  0  0  0  0  0  0  0
    9.0126   46.0208   51.0762 H   0  0  0  0  0  0  0  0  0  0  0  0
   10.8457   46.6757   52.6394 H   0  0  0  0  0  0  0  0  0  0  0  0
    7.9284   47.4616   55.7373 H   0  0  0  0  0  0  0  0  0  0  0  0
    6.0927   46.8019   54.1801 H   0  0  0  0  0  0  0  0  0  0  0  0
    5.3260   43.6979   52.4483 H   0  0  0  0  0  0  0  0  0  0  0  0
    2.9282   43.3748   53.0412 H   0  0  0  0  0  0  0  0  0  0  0  0
   -0.9926   43.9358   56.7068 H   0  0  0  0  0  0  0  0  0  0  0  0
   -2.2560   46.4658   56.0094 H   0  0  0  0  0  0  0  0  0  0  0  0
   -2.5087   45.5550   57.5004 H   0  0  0  0  0  0  0  0  0  0  0  0
   -0.6924   47.8831   56.9462 H   0  0  0  0  0  0  0  0  0  0  0  0
   -1.4231   47.3782   58.4928 H   0  0  0  0  0  0  0  0  0  0  0  0
    0.2030   45.8650   58.8710 H   0  0  0  0  0  0  0  0  0  0  0  0
    1.2370   45.8213   56.1366 H   0  0  0  0  0  0  0  0  0  0  0  0
    1.1529   44.5171   57.3500 H   0  0  0  0  0  0  0  0  0  0  0  0
  1  2  1  0
  2  3  1  0
  3  4  1  0
  4  5  2  0
  4  6  1  0
  6  7  2  0
  7  8  1  0
  8  9  2  0
  9 10  1  0
 10 11  1  0
 11 12  2  0
 12 13  1  0
 13 14  2  0
 14 15  1  0
 14 16  1  0
 16 17  2  0
  9 18  1  0
 18 19  2  0
  2 20  1  0
 20 21  1  0
 21 22  1  0
 22 23  1  0
 23 24  1  0
 19  6  1  0
 24 20  1  0
 17 11  1  0
  1 25  1  0
  1 26  1  0
  1 27  1  0
  2 28  1  6
  3 29  1  0
  7 30  1  0
  8 31  1  0
 12 32  1  0
 13 33  1  0
 16 34  1  0
 17 35  1  0
 18 36  1  0
 19 37  1  0
 20 38  1  1
 21 39  1  0
 21 40  1  0
 22 41  1  0
 22 42  1  0
 23 43  1  0
 24 44  1  0
 24 45  1  0
M  END
>  <meeko>  (4) 
{"is_sidechain": [false], "free_energy": -8.019, "intermolecular_energy": -10.401, "internal_energy": -0.725}

$$$$
ligand_23_conformer_2_docked
     RDKit          3D

 45 47  0  0  0  0  0  0  0  0999 V2000
    6.1880   46.8170   54.7490 C   0  0  0  0  0  0  0  0  0  0  0  0
    6.5180   46.9400   53.2590 C   0  0  2  0  0  0  0  0  0  0  0  0
    6.4440   45.6180   52.6210 N   0  0  0  0  0  0  0  0  0  0  0  0
    5.2090   45.0400   52.1640 C   0  0  0  0  0  0  0  0  0  0  0  0
    4.1100   45.5110   52.5650 O   0  0  0  0  0  0  0  0  0  0  0  0
    5.2100   43.8820   51.2370 C   0  0  0  0  0  0  0  0  0  0  0  0
    4.2100   42.8990   51.3350 C   0  0  0  0  0  0  0  0  0  0  0  0
    4.1970   41.8110   50.4580 C   0  0  0  0  0  0  0  0  0  0  0  0
    5.1780   41.6840   49.4690 C   0  0  0  0  0  0  0  0  0  0  0  0
    5.1150   40.5900   48.5930 O   0  0  0  0  0  0  0  0  0  0  0  0
    4.3760   40.5450   47.4020 C   0  0  0  0  0  0  0  0  0  0  0  0
    3.3260   39.6250   47.2960 C   0  0  0  0  0  0  0  0  0  0  0  0
    2.5730   39.5420   46.1190 C   0  0  0  0  0  0  0  0  0  0  0  0
    2.8750   40.3720   45.0340 C   0  0  0  0  0  0  0  0  0  0  0  0
    1.9240   40.2730   43.5630 Cl  0  0  0  0  0  0  0  0  0  0  0  0
    3.9360   41.2800   45.1250 C   0  0  0  0  0  0  0  0  0  0  0  0
    4.6900   41.3620   46.2990 C   0  0  0  0  0  0  0  0  0  0  0  0
    6.1620   42.6790   49.3480 C   0  0  0  0  0  0  0  0  0  0  0  0
    6.1810   43.7660   50.2270 C   0  0  0  0  0  0  0  0  0  0  0  0
    7.9000   47.6120   53.0260 C   0  0  2  0  0  0  0  0  0  0  0  0
    8.6700   47.0030   51.8550 C   0  0  0  0  0  0  0  0  0  0  0  0
    9.9850   46.5280   52.4490 C   0  0  0  0  0  0  0  0  0  0  0  0
   10.2000   47.2600   53.6940 N   0  0  0  0  0  0  0  0  0  0  0  0
    8.8650   47.5410   54.2180 C   0  0  0  0  0  0  0  0  0  0  0  0
    7.0547   47.1400   55.3444 H   0  0  0  0  0  0  0  0  0  0  0  0
    5.3224   47.4529   54.9866 H   0  0  0  0  0  0  0  0  0  0  0  0
    5.9498   45.7697   54.9866 H   0  0  0  0  0  0  0  0  0  0  0  0
    5.7698   47.5972   52.7918 H   0  0  0  0  0  0  0  0  0  0  0  0
    7.3170   45.0540   52.5350 H   0  0  0  0  0  0  0  0  0  0  0  0
    3.4320   42.9868   52.1076 H   0  0  0  0  0  0  0  0  0  0  0  0
    3.4091   41.0485   50.5461 H   0  0  0  0  0  0  0  0  0  0  0  0
    3.0914   38.9634   48.1429 H   0  0  0  0  0  0  0  0  0  0  0  0
    1.7431   38.8236   46.0471 H   0  0  0  0  0  0  0  0  0  0  0  0
    4.1770   41.9303   44.2711 H   0  0  0  0  0  0  0  0  0  0  0  0
    5.5318   42.0673   46.3615 H   0  0  0  0  0  0  0  0  0  0  0  0
    6.9223   42.6025   48.5568 H   0  0  0  0  0  0  0  0  0  0  0  0
    6.9608   44.5355   50.1277 H   0  0  0  0  0  0  0  0  0  0  0  0
    7.6104   48.6560   52.8356 H   0  0  0  0  0  0  0  0  0  0  0  0
    8.1131   46.1576   51.4247 H   0  0  0  0  0  0  0  0  0  0  0  0
    8.8234   47.7276   51.0417 H   0  0  0  0  0  0  0  0  0  0  0  0
    9.9356   45.4482   52.6530 H   0  0  0  0  0  0  0  0  0  0  0  0
   10.8125   46.7097   51.7475 H   0  0  0  0  0  0  0  0  0  0  0  0
   10.6470   48.1750   53.4520 H   0  0  0  0  0  0  0  0  0  0  0  0
    8.5551   46.7383   54.9034 H   0  0  0  0  0  0  0  0  0  0  0  0
    8.8615   48.4907   54.7731 H   0  0  0  0  0  0  0  0  0  0  0  0
  1  2  1  0
  2  3  1  0
  3  4  1  0
  4  5  2  0
  4  6  1  0
  6  7  2  0
  7  8  1  0
  8  9  2  0
  9 10  1  0
 10 11  1  0
 11 12  2  0
 12 13  1  0
 13 14  2  0
 14 15  1  0
 14 16  1  0
 16 17  2  0
  9 18  1  0
 18 19  2  0
  2 20  1  0
 20 21  1  0
 21 22  1  0
 22 23  1  0
 23 24  1  0
 19  6  1  0
 24 20  1  0
 17 11  1  0
  1 25  1  0
  1 26  1  0
  1 27  1  0
  2 28  1  6
  3 29  1  0
  7 30  1  0
  8 31  1  0
 12 32  1  0
 13 33  1  0
 16 34  1  0
 17 35  1  0
 18 36  1  0
 19 37  1  0
 20 38  1  6
 21 39  1  0
 21 40  1  0
 22 41  1  0
 22 42  1  0
 23 43  1  0
 24 44  1  0
 24 45  1  0
M  END
>  <meeko>  (5) 
{"is_sidechain": [false], "free_energy": -7.862, "intermolecular_energy": -10.171, "internal_energy": -0.75}

$$$$
