MODEL 1
REMARK VINA RESULT:    -9.311      0.000      0.000
REMARK INTER + INTRA:         -10.991
REMARK INTER:                 -10.944
REMARK INTRA:                  -0.047
REMARK UNBOUND:                -0.047
REMARK SMILES Cn1c(=O)n(C)c2cc(S(=O)(=O)Nc3ccc4c(c3)NCC4)c(Br)cc21
REMARK SMILES IDX 10 1 11 2 12 3 9 4 2 5 3 6 26 7 4 8 5 9 25 10 7 11 23 12
REMARK SMILES IDX 8 13 1 14 6 15 24 16 13 17 14 19 15 20 19 21 16 22 18 23
REMARK SMILES IDX 17 24 20 25 22 26 21 27
REMARK H PARENT 13 18 20 28
ROOT
ATOM      1  S   UNL     1       5.161  47.167  53.948  1.00  0.00     0.263 S 
ATOM      2  O   UNL     1       6.235  47.464  54.957  1.00  0.00    -0.201 OA
ATOM      3  O   UNL     1       4.608  48.462  53.419  1.00  0.00    -0.201 OA
ENDROOT
BRANCH   1   4
ATOM      4  C   UNL     1       5.853  46.174  52.655  1.00  0.00     0.104 A 
ATOM      5  N   UNL     1       7.096  43.666  49.637  1.00  0.00    -0.295 N 
ATOM      6  C   UNL     1       6.123  42.734  49.790  1.00  0.00     0.328 A 
ATOM      7  C   UNL     1       6.833  44.579  50.593  1.00  0.00     0.070 A 
ATOM      8  O   UNL     1       6.005  41.721  49.049  1.00  0.00    -0.248 OA
ATOM      9  N   UNL     1       5.283  43.010  50.819  1.00  0.00    -0.295 N 
ATOM     10  C   UNL     1       7.506  45.766  50.880  1.00  0.00     0.045 A 
ATOM     11  C   UNL     1       5.735  44.184  51.305  1.00  0.00     0.070 A 
ATOM     12  C   UNL     1       7.020  46.567  51.930  1.00  0.00     0.040 A 
ATOM     13  C   UNL     1       5.216  44.952  52.343  1.00  0.00     0.052 A 
ATOM     14  C   UNL     1       8.118  43.732  48.594  1.00  0.00     0.155 C 
ATOM     15  C   UNL     1       4.094  42.264  51.229  1.00  0.00     0.155 C 
ATOM     16  Br  UNL     1       8.003  48.166  52.336  1.00  0.00    -0.049 Br
ENDBRANCH   1   4
BRANCH   1  17
ATOM     17  N   UNL     1       3.871  46.304  54.729  1.00  0.00    -0.280 N 
ATOM     18  H   UNL     1       3.933  46.195  55.767  1.00  0.00     0.180 HD
BRANCH  17  19
ATOM     19  C   UNL     1       2.826  45.622  54.013  1.00  0.00     0.051 A 
ATOM     20  C   UNL     1       2.071  46.334  53.050  1.00  0.00     0.027 A 
ATOM     21  C   UNL     1       2.531  44.260  54.250  1.00  0.00     0.052 A 
ATOM     22  C   UNL     1       1.046  45.697  52.329  1.00  0.00     0.008 A 
ATOM     23  C   UNL     1       1.503  43.663  53.524  1.00  0.00     0.039 A 
ATOM     24  C   UNL     1       0.788  44.351  52.589  1.00  0.00    -0.023 A 
ATOM     25  N   UNL     1       1.080  42.320  53.622  1.00  0.00    -0.384 N 
ATOM     26  C   UNL     1      -0.216  43.460  51.944  1.00  0.00     0.059 C 
ATOM     27  C   UNL     1       0.000  42.102  52.662  1.00  0.00     0.117 C 
ATOM     28  H   UNL     1       1.519  41.584  54.219  1.00  0.00     0.160 HD
ENDBRANCH  17  19
ENDBRANCH   1  17
TORSDOF 3
ENDMDL
MODEL 2
REMARK VINA RESULT:    -9.297      3.320      7.431
REMARK INTER + INTRA:         -10.975
REMARK INTER:                 -10.579
REMARK INTRA:                  -0.395
REMARK UNBOUND:                -0.047
REMARK SMILES Cn1c(=O)n(C)c2cc(S(=O)(=O)Nc3ccc4c(c3)NCC4)c(Br)cc21
REMARK SMILES IDX 10 1 11 2 12 3 9 4 2 5 3 6 26 7 4 8 5 9 25 10 7 11 23 12
REMARK SMILES IDX 8 13 1 14 6 15 24 16 13 17 14 19 15 20 19 21 16 22 18 23
REMARK SMILES IDX 17 24 20 25 22 26 21 27
REMARK H PARENT 13 18 20 28
ROOT
ATOM      1  S   UNL     1       3.120  46.076  51.928  1.00  0.00     0.263 S 
ATOM      2  O   UNL     1       2.773  46.050  50.465  1.00  0.00    -0.201 OA
ATOM      3  O   UNL     1       3.525  47.473  52.314  1.00  0.00    -0.201 OA
ENDROOT
BRANCH   1   4
ATOM      4  C   UNL     1       1.719  45.520  52.856  1.00  0.00     0.104 A 
ATOM      5  N   UNL     1      -1.688  44.074  54.658  1.00  0.00    -0.295 N 
ATOM      6  C   UNL     1      -2.410  43.901  53.524  1.00  0.00     0.328 A 
ATOM      7  C   UNL     1      -0.512  44.574  54.229  1.00  0.00     0.070 A 
ATOM      8  O   UNL     1      -3.573  43.414  53.505  1.00  0.00    -0.248 OA
ATOM      9  N   UNL     1      -1.749  44.301  52.409  1.00  0.00    -0.295 N 
ATOM     10  C   UNL     1       0.616  44.919  54.972  1.00  0.00     0.045 A 
ATOM     11  C   UNL     1      -0.548  44.708  52.869  1.00  0.00     0.070 A 
ATOM     12  C   UNL     1       1.740  45.410  54.281  1.00  0.00     0.040 A 
ATOM     13  C   UNL     1       0.545  45.178  52.147  1.00  0.00     0.052 A 
ATOM     14  C   UNL     1      -2.052  43.687  56.019  1.00  0.00     0.155 C 
ATOM     15  C   UNL     1      -2.194  44.203  51.020  1.00  0.00     0.155 C 
ATOM     16  Br  UNL     1       3.256  45.931  55.338  1.00  0.00    -0.049 Br
ENDBRANCH   1   4
BRANCH   1  17
ATOM     17  N   UNL     1       4.471  45.020  52.209  1.00  0.00    -0.280 N 
ATOM     18  H   UNL     1       4.256  44.047  52.527  1.00  0.00     0.180 HD
BRANCH  17  19
ATOM     19  C   UNL     1       5.841  45.457  52.167  1.00  0.00     0.051 A 
ATOM     20  C   UNL     1       6.552  45.388  50.945  1.00  0.00     0.027 A 
ATOM     21  C   UNL     1       6.497  45.951  53.319  1.00  0.00     0.052 A 
ATOM     22  C   UNL     1       7.889  45.812  50.869  1.00  0.00     0.008 A 
ATOM     23  C   UNL     1       7.826  46.353  53.209  1.00  0.00     0.039 A 
ATOM     24  C   UNL     1       8.500  46.296  52.025  1.00  0.00    -0.023 A 
ATOM     25  N   UNL     1       8.631  46.877  54.244  1.00  0.00    -0.384 N 
ATOM     26  C   UNL     1       9.884  46.823  52.190  1.00  0.00     0.059 C 
ATOM     27  C   UNL     1       9.944  47.201  53.693  1.00  0.00     0.117 C 
ATOM     28  H   UNL     1       8.315  47.076  55.219  1.00  0.00     0.160 HD
ENDBRANCH  17  19
ENDBRANCH   1  17
TORSDOF 3
ENDMDL
MODEL 3
REMARK VINA RESULT:    -9.006      2.983      7.081
REMARK INTER + INTRA:         -10.632
REMARK INTER:                 -10.821
REMARK INTRA:                   0.189
REMARK UNBOUND:                -0.047
REMARK SMILES Cn1c(=O)n(C)c2cc(S(=O)(=O)Nc3ccc4c(c3)NCC4)c(Br)cc21
REMARK SMILES IDX 10 1 11 2 12 3 9 4 2 5 3 6 26 7 4 8 5 9 25 10 7 11 23 12
REMARK SMILES IDX 8 13 1 14 6 15 24 16 13 17 14 19 15 20 19 21 16 22 18 23
REMARK SMILES IDX 17 24 20 25 22 26 21 27
REMARK H PARENT 13 18 20 28
ROOT
ATOM      1  S   UNL     1       6.590  43.069  49.561  1.00  0.00     0.263 S 
ATOM      2  O   UNL     1       7.630  42.123  50.094  1.00  0.00    -0.201 OA
ATOM      3  O   UNL     1       6.197  42.642  48.174  1.00  0.00    -0.201 OA
ENDROOT
BRANCH   1   4
ATOM      4  C   UNL     1       5.205  43.072  50.664  1.00  0.00     0.104 A 
ATOM      5  N   UNL     1       2.097  43.463  53.334  1.00  0.00    -0.295 N 
ATOM      6  C   UNL     1       2.599  44.524  54.013  1.00  0.00     0.328 A 
ATOM      7  C   UNL     1       3.034  43.192  52.404  1.00  0.00     0.070 A 
ATOM      8  O   UNL     1       1.991  45.101  54.955  1.00  0.00    -0.248 OA
ATOM      9  N   UNL     1       3.822  44.907  53.567  1.00  0.00    -0.295 N 
ATOM     10  C   UNL     1       3.027  42.209  51.415  1.00  0.00     0.045 A 
ATOM     11  C   UNL     1       4.075  44.067  52.543  1.00  0.00     0.070 A 
ATOM     12  C   UNL     1       4.130  42.138  50.543  1.00  0.00     0.040 A 
ATOM     13  C   UNL     1       5.178  44.038  51.695  1.00  0.00     0.052 A 
ATOM     14  C   UNL     1       0.784  42.840  53.490  1.00  0.00     0.155 C 
ATOM     15  C   UNL     1       4.625  46.041  54.020  1.00  0.00     0.155 C 
ATOM     16  Br  UNL     1       4.116  40.737  49.230  1.00  0.00    -0.049 Br
ENDBRANCH   1   4
BRANCH   1  17
ATOM     17  N   UNL     1       7.272  44.665  49.466  1.00  0.00    -0.280 N 
ATOM     18  H   UNL     1       7.192  45.163  48.550  1.00  0.00     0.180 HD
BRANCH  17  19
ATOM     19  C   UNL     1       8.051  45.258  50.521  1.00  0.00     0.051 A 
ATOM     20  C   UNL     1       9.443  45.007  50.576  1.00  0.00     0.027 A 
ATOM     21  C   UNL     1       7.460  46.081  51.507  1.00  0.00     0.052 A 
ATOM     22  C   UNL     1      10.234  45.575  51.589  1.00  0.00     0.008 A 
ATOM     23  C   UNL     1       8.271  46.620  52.502  1.00  0.00     0.039 A 
ATOM     24  C   UNL     1       9.615  46.384  52.541  1.00  0.00    -0.023 A 
ATOM     25  N   UNL     1       7.858  47.465  53.554  1.00  0.00    -0.384 N 
ATOM     26  C   UNL     1      10.236  47.112  53.683  1.00  0.00     0.059 C 
ATOM     27  C   UNL     1       9.030  47.826  54.348  1.00  0.00     0.117 C 
ATOM     28  H   UNL     1       6.892  47.837  53.693  1.00  0.00     0.160 HD
ENDBRANCH  17  19
ENDBRANCH   1  17
TORSDOF 3
ENDMDL
MODEL 4
REMARK VINA RESULT:    -8.933      2.853      3.634
REMARK INTER + INTRA:         -10.546
REMARK INTER:                 -10.470
REMARK INTRA:                  -0.076
REMARK UNBOUND:                -0.047
REMARK SMILES Cn1c(=O)n(C)c2cc(S(=O)(=O)Nc3ccc4c(c3)NCC4)c(Br)cc21
REMARK SMILES IDX 10 1 11 2 12 3 9 4 2 5 3 6 26 7 4 8 5 9 25 10 7 11 23 12
REMARK SMILES IDX 8 13 1 14 6 15 24 16 13 17 14 19 15 20 19 21 16 22 18 23
REMARK SMILES IDX 17 24 20 25 22 26 21 27
REMARK H PARENT 13 18 20 28
ROOT
ATOM      1  S   UNL     1       4.162  47.167  53.838  1.00  0.00     0.263 S 
ATOM      2  O   UNL     1       4.623  48.358  54.632  1.00  0.00    -0.201 OA
ATOM      3  O   UNL     1       2.955  47.550  53.026  1.00  0.00    -0.201 OA
ENDROOT
BRANCH   1   4
ATOM      4  C   UNL     1       5.495  46.618  52.810  1.00  0.00     0.104 A 
ATOM      5  N   UNL     1       8.844  45.404  50.747  1.00  0.00    -0.295 N 
ATOM      6  C   UNL     1       9.758  45.940  51.593  1.00  0.00     0.328 A 
ATOM      7  C   UNL     1       7.656  45.738  51.290  1.00  0.00     0.070 A 
ATOM      8  O   UNL     1      11.004  45.814  51.444  1.00  0.00    -0.248 OA
ATOM      9  N   UNL     1       9.193  46.619  52.622  1.00  0.00    -0.295 N 
ATOM     10  C   UNL     1       6.372  45.426  50.845  1.00  0.00     0.045 A 
ATOM     11  C   UNL     1       7.867  46.469  52.425  1.00  0.00     0.070 A 
ATOM     12  C   UNL     1       5.278  45.881  51.605  1.00  0.00     0.040 A 
ATOM     13  C   UNL     1       6.815  46.928  53.211  1.00  0.00     0.052 A 
ATOM     14  C   UNL     1       9.090  44.552  49.586  1.00  0.00     0.155 C 
ATOM     15  C   UNL     1       9.868  47.265  53.747  1.00  0.00     0.155 C 
ATOM     16  Br  UNL     1       3.523  45.484  50.934  1.00  0.00    -0.049 Br
ENDBRANCH   1   4
BRANCH   1  17
ATOM     17  N   UNL     1       3.701  45.899  54.934  1.00  0.00    -0.280 N 
ATOM     18  H   UNL     1       4.464  45.451  55.490  1.00  0.00     0.180 HD
BRANCH  17  19
ATOM     19  C   UNL     1       2.372  45.352  54.998  1.00  0.00     0.051 A 
ATOM     20  C   UNL     1       1.947  44.448  53.995  1.00  0.00     0.027 A 
ATOM     21  C   UNL     1       1.477  45.700  56.037  1.00  0.00     0.052 A 
ATOM     22  C   UNL     1       0.657  43.892  54.032  1.00  0.00     0.008 A 
ATOM     23  C   UNL     1       0.203  45.137  56.036  1.00  0.00     0.039 A 
ATOM     24  C   UNL     1      -0.195  44.257  55.074  1.00  0.00    -0.023 A 
ATOM     25  N   UNL     1      -0.812  45.361  56.992  1.00  0.00    -0.384 N 
ATOM     26  C   UNL     1      -1.584  43.788  55.342  1.00  0.00     0.059 C 
ATOM     27  C   UNL     1      -1.974  44.550  56.635  1.00  0.00     0.117 C 
ATOM     28  H   UNL     1      -0.719  45.942  57.855  1.00  0.00     0.160 HD
ENDBRANCH  17  19
ENDBRANCH   1  17
TORSDOF 3
ENDMDL
MODEL 5
REMARK VINA RESULT:    -8.795      3.804      7.930
REMARK INTER + INTRA:         -10.384
REMARK INTER:                 -10.275
REMARK INTRA:                  -0.109
REMARK UNBOUND:                -0.047
REMARK SMILES Cn1c(=O)n(C)c2cc(S(=O)(=O)Nc3ccc4c(c3)NCC4)c(Br)cc21
REMARK SMILES IDX 10 1 11 2 12 3 9 4 2 5 3 6 26 7 4 8 5 9 25 10 7 11 23 12
REMARK SMILES IDX 8 13 1 14 6 15 24 16 13 17 14 19 15 20 19 21 16 22 18 23
REMARK SMILES IDX 17 24 20 25 22 26 21 27
REMARK H PARENT 13 18 20 28
ROOT
ATOM      1  S   UNL     1       2.957  45.083  52.340  1.00  0.00     0.263 S 
ATOM      2  O   UNL     1       3.699  43.783  52.197  1.00  0.00    -0.201 OA
ATOM      3  O   UNL     1       2.637  45.622  50.973  1.00  0.00    -0.201 OA
ENDROOT
BRANCH   1   4
ATOM      4  C   UNL     1       1.490  44.800  53.291  1.00  0.00     0.104 A 
ATOM      5  N   UNL     1      -1.784  44.438  55.760  1.00  0.00    -0.295 N 
ATOM      6  C   UNL     1      -1.254  45.084  56.828  1.00  0.00     0.328 A 
ATOM      7  C   UNL     1      -0.799  44.457  54.839  1.00  0.00     0.070 A 
ATOM      8  O   UNL     1      -1.888  45.304  57.895  1.00  0.00    -0.248 OA
ATOM      9  N   UNL     1       0.029  45.476  56.625  1.00  0.00    -0.295 N 
ATOM     10  C   UNL     1      -0.806  43.951  53.540  1.00  0.00     0.045 A 
ATOM     11  C   UNL     1       0.295  45.087  55.362  1.00  0.00     0.070 A 
ATOM     12  C   UNL     1       0.356  44.112  52.760  1.00  0.00     0.040 A 
ATOM     13  C   UNL     1       1.458  45.277  54.621  1.00  0.00     0.052 A 
ATOM     14  C   UNL     1      -3.152  43.950  55.597  1.00  0.00     0.155 C 
ATOM     15  C   UNL     1       0.883  46.246  57.529  1.00  0.00     0.155 C 
ATOM     16  Br  UNL     1       0.334  43.354  50.996  1.00  0.00    -0.049 Br
ENDBRANCH   1   4
BRANCH   1  17
ATOM     17  N   UNL     1       3.976  46.231  53.155  1.00  0.00    -0.280 N 
ATOM     18  H   UNL     1       3.504  46.931  53.771  1.00  0.00     0.180 HD
BRANCH  17  19
ATOM     19  C   UNL     1       5.388  46.351  52.909  1.00  0.00     0.051 A 
ATOM     20  C   UNL     1       5.892  46.062  51.618  1.00  0.00     0.027 A 
ATOM     21  C   UNL     1       6.287  46.746  53.927  1.00  0.00     0.052 A 
ATOM     22  C   UNL     1       7.265  46.175  51.343  1.00  0.00     0.008 A 
ATOM     23  C   UNL     1       7.642  46.838  53.622  1.00  0.00     0.039 A 
ATOM     24  C   UNL     1       8.119  46.570  52.372  1.00  0.00    -0.023 A 
ATOM     25  N   UNL     1       8.675  47.222  54.504  1.00  0.00    -0.384 N 
ATOM     26  C   UNL     1       9.592  46.785  52.322  1.00  0.00     0.059 C 
ATOM     27  C   UNL     1       9.939  47.218  53.771  1.00  0.00     0.117 C 
ATOM     28  H   UNL     1       8.547  47.538  55.492  1.00  0.00     0.160 HD
ENDBRANCH  17  19
ENDBRANCH   1  17
TORSDOF 3
ENDMDL
