ligand_46_conformer_4_docked
     RDKit          3D

 53 57  0  0  0  0  0  0  0  0999 V2000
   -0.3920   43.0470   50.2920 O   0  0  0  0  0  0  0  0  0  0  0  0
    0.2030   43.3370   51.3640 C   0  0  0  0  0  0  0  0  0  0  0  0
    1.6770   43.4470   51.3730 C   0  0  0  0  0  0  0  0  0  0  0  0
    2.4660   42.3840   50.8610 C   0  0  0  0  0  0  0  0  0  0  0  0
    3.8700   42.4680   50.8550 C   0  0  0  0  0  0  0  0  0  0  0  0
    4.4550   43.6170   51.3770 C   0  0  0  0  0  0  0  0  0  0  0  0
    5.7800   43.9680   51.5050 C   0  0  0  0  0  0  0  0  0  0  0  0
    5.7670   45.2260   52.1150 C   0  0  0  0  0  0  0  0  0  0  0  0
    6.9670   46.0260   52.4630 C   0  0  0  0  0  0  0  0  0  0  0  0
    7.8780   46.4250   51.4660 C   0  0  0  0  0  0  0  0  0  0  0  0
    9.0060   47.1830   51.7980 C   0  0  0  0  0  0  0  0  0  0  0  0
    9.2390   47.5470   53.1250 C   0  0  0  0  0  0  0  0  0  0  0  0
    8.3450   47.1560   54.1240 C   0  0  0  0  0  0  0  0  0  0  0  0
    7.2150   46.4010   53.7970 C   0  0  0  0  0  0  0  0  0  0  0  0
    4.4910   45.6270   52.3490 N   0  0  0  0  0  0  0  0  0  0  0  0
    3.7050   44.6380   51.8920 C   0  0  0  0  0  0  0  0  0  0  0  0
    2.3130   44.5900   51.9100 C   0  0  0  0  0  0  0  0  0  0  0  0
   -0.5700   43.5960   52.5370 N   0  0  0  0  0  0  0  0  0  0  0  0
   -2.0040   43.5940   52.8840 C   0  0  0  0  0  0  0  0  0  0  0  0
   -1.8400   44.2040   54.2450 C   0  0  0  0  0  0  0  0  0  0  0  0
   -2.1370   43.2980   55.3720 N   0  0  0  0  0  0  0  0  0  0  0  0
   -3.2380   43.7980   56.2140 C   0  0  0  0  0  0  0  0  0  0  0  0
   -3.1990   43.1840   57.6330 C   0  0  0  0  0  0  0  0  0  0  0  0
   -3.8940   44.1200   58.6330 C   0  0  0  0  0  0  0  0  0  0  0  0
   -3.2940   45.4070   58.7490 O   0  0  0  0  0  0  0  0  0  0  0  0
   -2.5740   45.8250   57.5950 C   0  0  0  0  0  0  0  0  0  0  0  0
   -3.1910   45.3400   56.2740 C   0  0  0  0  0  0  0  0  0  0  0  0
   -0.3890   44.1880   53.8790 C   0  0  0  0  0  0  0  0  0  0  0  0
    1.9736   41.4839   50.4642 H   0  0  0  0  0  0  0  0  0  0  0  0
    4.4857   41.6512   50.4504 H   0  0  0  0  0  0  0  0  0  0  0  0
    6.6593   43.3846   51.1944 H   0  0  0  0  0  0  0  0  0  0  0  0
    7.7014   46.1386   50.4187 H   0  0  0  0  0  0  0  0  0  0  0  0
    9.7104   47.4926   51.0119 H   0  0  0  0  0  0  0  0  0  0  0  0
   10.1271   48.1421   53.3841 H   0  0  0  0  0  0  0  0  0  0  0  0
    8.5303   47.4426   55.1697 H   0  0  0  0  0  0  0  0  0  0  0  0
    6.5139   46.0974   54.5884 H   0  0  0  0  0  0  0  0  0  0  0  0
    4.1710   46.5260   52.7720 H   0  0  0  0  0  0  0  0  0  0  0  0
    1.7245   45.4188   52.3305 H   0  0  0  0  0  0  0  0  0  0  0  0
   -2.6052   44.2198   52.2080 H   0  0  0  0  0  0  0  0  0  0  0  0
   -2.5315   42.6304   52.8274 H   0  0  0  0  0  0  0  0  0  0  0  0
   -2.4047   45.0874   54.5776 H   0  0  0  0  0  0  0  0  0  0  0  0
   -2.3360   42.3210   55.0480 H   0  0  0  0  0  0  0  0  0  0  0  0
   -4.1894   43.4870   55.7579 H   0  0  0  0  0  0  0  0  0  0  0  0
   -3.7162   42.2132   57.6236 H   0  0  0  0  0  0  0  0  0  0  0  0
   -2.1508   43.0470   57.9371 H   0  0  0  0  0  0  0  0  0  0  0  0
   -4.9371   44.2544   58.3107 H   0  0  0  0  0  0  0  0  0  0  0  0
   -3.8085   43.6435   59.6207 H   0  0  0  0  0  0  0  0  0  0  0  0
   -2.5459   46.9246   57.5823 H   0  0  0  0  0  0  0  0  0  0  0  0
   -1.5700   45.3808   57.6636 H   0  0  0  0  0  0  0  0  0  0  0  0
   -4.2146   45.7339   56.1899 H   0  0  0  0  0  0  0  0  0  0  0  0
   -2.5671   45.7025   55.4438 H   0  0  0  0  0  0  0  0  0  0  0  0
    0.0504   45.1958   53.8424 H   0  0  0  0  0  0  0  0  0  0  0  0
    0.2946   43.6686   54.5667 H   0  0  0  0  0  0  0  0  0  0  0  0
  1  2  2  0
  2  3  1  0
  3  4  2  0
  4  5  1  0
  5  6  2  0
  6  7  1  0
  7  8  2  0
  8  9  1  0
  9 10  2  0
 10 11  1  0
 11 12  2  0
 12 13  1  0
 13 14  2  0
  8 15  1  0
 15 16  1  0
 16 17  2  0
  2 18  1  0
 18 19  1  0
 19 20  1  0
 20 21  1  0
 21 22  1  0
 22 23  1  0
 23 24  1  0
 24 25  1  0
 25 26  1  0
 26 27  1  0
 20 28  1  0
 17  3  1  0
 28 18  1  0
 16  6  1  0
 27 22  1  0
 14  9  1  0
  4 29  1  0
  5 30  1  0
  7 31  1  0
 10 32  1  0
 11 33  1  0
 12 34  1  0
 13 35  1  0
 14 36  1  0
 15 37  1  0
 17 38  1  0
 19 39  1  0
 19 40  1  0
 20 41  1  0
 21 42  1  0
 22 43  1  0
 23 44  1  0
 23 45  1  0
 24 46  1  0
 24 47  1  0
 26 48  1  0
 26 49  1  0
 27 50  1  0
 27 51  1  0
 28 52  1  0
 28 53  1  0
M  END
>  <meeko>  (1) 
{"is_sidechain": [false], "free_energy": -8.701, "intermolecular_energy": -10.735, "internal_energy": -0.516}

$$$$
ligand_46_conformer_4_docked
     RDKit          3D

 53 57  0  0  0  0  0  0  0  0999 V2000
   -0.1850   41.7780   53.4710 O   0  0  0  0  0  0  0  0  0  0  0  0
    0.3320   42.8950   53.7380 C   0  0  0  0  0  0  0  0  0  0  0  0
    1.6410   43.2520   53.1520 C   0  0  0  0  0  0  0  0  0  0  0  0
    2.0460   42.6640   51.9250 C   0  0  0  0  0  0  0  0  0  0  0  0
    3.2850   42.9910   51.3450 C   0  0  0  0  0  0  0  0  0  0  0  0
    4.1000   43.8950   52.0190 C   0  0  0  0  0  0  0  0  0  0  0  0
    5.3450   44.3880   51.7000 C   0  0  0  0  0  0  0  0  0  0  0  0
    5.6790   45.2450   52.7530 C   0  0  0  0  0  0  0  0  0  0  0  0
    6.9390   46.0210   52.8650 C   0  0  0  0  0  0  0  0  0  0  0  0
    7.4140   46.4410   54.1220 C   0  0  0  0  0  0  0  0  0  0  0  0
    8.6040   47.1690   54.2230 C   0  0  0  0  0  0  0  0  0  0  0  0
    9.3290   47.4890   53.0750 C   0  0  0  0  0  0  0  0  0  0  0  0
    8.8680   47.0810   51.8220 C   0  0  0  0  0  0  0  0  0  0  0  0
    7.6810   46.3510   51.7150 C   0  0  0  0  0  0  0  0  0  0  0  0
    4.6830   45.2750   53.6750 N   0  0  0  0  0  0  0  0  0  0  0  0
    3.7290   44.4500   53.2120 C   0  0  0  0  0  0  0  0  0  0  0  0
    2.5080   44.1520   53.8130 C   0  0  0  0  0  0  0  0  0  0  0  0
   -0.3860   43.8100   54.5700 N   0  0  0  0  0  0  0  0  0  0  0  0
   -1.6720   43.8010   55.2920 C   0  0  0  0  0  0  0  0  0  0  0  0
   -1.6520   45.2530   55.6720 C   0  0  0  0  0  0  0  0  0  0  0  0
   -1.4810   45.5160   57.1130 N   0  0  0  0  0  0  0  0  0  0  0  0
   -2.2690   46.6760   57.5660 C   0  0  0  0  0  0  0  0  0  0  0  0
   -3.2170   46.3060   58.7310 C   0  0  0  0  0  0  0  0  0  0  0  0
   -3.5330   47.5520   59.5700 C   0  0  0  0  0  0  0  0  0  0  0  0
   -2.3950   48.1620   60.1720 O   0  0  0  0  0  0  0  0  0  0  0  0
   -1.1700   47.9190   59.4900 C   0  0  0  0  0  0  0  0  0  0  0  0
   -1.3220   47.8280   57.9630 C   0  0  0  0  0  0  0  0  0  0  0  0
   -0.3450   45.2390   54.9430 C   0  0  0  0  0  0  0  0  0  0  0  0
    1.3833   41.9444   51.4221 H   0  0  0  0  0  0  0  0  0  0  0  0
    3.5995   42.5463   50.3893 H   0  0  0  0  0  0  0  0  0  0  0  0
    5.9472   44.1574   50.8088 H   0  0  0  0  0  0  0  0  0  0  0  0
    6.8454   46.1949   55.0309 H   0  0  0  0  0  0  0  0  0  0  0  0
    8.9690   47.4899   55.2098 H   0  0  0  0  0  0  0  0  0  0  0  0
   10.2639   48.0628   53.1570 H   0  0  0  0  0  0  0  0  0  0  0  0
    9.4400   47.3345   50.9173 H   0  0  0  0  0  0  0  0  0  0  0  0
    7.3238   46.0319   50.7248 H   0  0  0  0  0  0  0  0  0  0  0  0
    4.6420   45.8360   54.5540 H   0  0  0  0  0  0  0  0  0  0  0  0
    2.2263   44.6045   54.7752 H   0  0  0  0  0  0  0  0  0  0  0  0
   -2.5217   43.5438   54.6425 H   0  0  0  0  0  0  0  0  0  0  0  0
   -1.7833   43.0714   56.1076 H   0  0  0  0  0  0  0  0  0  0  0  0
   -2.4888   45.9375   55.4689 H   0  0  0  0  0  0  0  0  0  0  0  0
   -1.7010   44.6720   57.6960 H   0  0  0  0  0  0  0  0  0  0  0  0
   -2.9045   47.0081   56.7318 H   0  0  0  0  0  0  0  0  0  0  0  0
   -4.1523   45.8956   58.3226 H   0  0  0  0  0  0  0  0  0  0  0  0
   -2.7269   45.5566   59.3699 H   0  0  0  0  0  0  0  0  0  0  0  0
   -4.0149   48.2936   58.9160 H   0  0  0  0  0  0  0  0  0  0  0  0
   -4.1821   47.2190   60.3932 H   0  0  0  0  0  0  0  0  0  0  0  0
   -0.4746   48.7392   59.7218 H   0  0  0  0  0  0  0  0  0  0  0  0
   -0.7972   46.9434   59.8353 H   0  0  0  0  0  0  0  0  0  0  0  0
   -1.7323   48.7764   57.5858 H   0  0  0  0  0  0  0  0  0  0  0  0
   -0.3321   47.6330   57.5246 H   0  0  0  0  0  0  0  0  0  0  0  0
   -0.3401   45.9058   54.0681 H   0  0  0  0  0  0  0  0  0  0  0  0
    0.5400   45.5861   55.4964 H   0  0  0  0  0  0  0  0  0  0  0  0
  1  2  2  0
  2  3  1  0
  3  4  2  0
  4  5  1  0
  5  6  2  0
  6  7  1  0
  7  8  2  0
  8  9  1  0
  9 10  2  0
 10 11  1  0
 11 12  2  0
 12 13  1  0
 13 14  2  0
  8 15  1  0
 15 16  1  0
 16 17  2  0
  2 18  1  0
 18 19  1  0
 19 20  1  0
 20 21  1  0
 21 22  1  0
 22 23  1  0
 23 24  1  0
 24 25  1  0
 25 26  1  0
 26 27  1  0
 20 28  1  0
 17  3  1  0
 28 18  1  0
 16  6  1  0
 27 22  1  0
 14  9  1  0
  4 29  1  0
  5 30  1  0
  7 31  1  0
 10 32  1  0
 11 33  1  0
 12 34  1  0
 13 35  1  0
 14 36  1  0
 15 37  1  0
 17 38  1  0
 19 39  1  0
 19 40  1  0
 20 41  1  0
 21 42  1  0
 22 43  1  0
 23 44  1  0
 23 45  1  0
 24 46  1  0
 24 47  1  0
 26 48  1  0
 26 49  1  0
 27 50  1  0
 27 51  1  0
 28 52  1  0
 28 53  1  0
M  END
>  <meeko>  (2) 
{"is_sidechain": [false], "free_energy": -8.684, "intermolecular_energy": -10.848, "internal_energy": -0.383}

$$$$
ligand_46_conformer_4_docked
     RDKit          3D

 53 57  0  0  0  0  0  0  0  0999 V2000
    0.0110   44.2220   55.2130 O   0  0  0  0  0  0  0  0  0  0  0  0
    0.2540   44.5540   54.0220 C   0  0  0  0  0  0  0  0  0  0  0  0
    1.6380   44.4700   53.5100 C   0  0  0  0  0  0  0  0  0  0  0  0
    1.9960   43.4270   52.6170 C   0  0  0  0  0  0  0  0  0  0  0  0
    3.3060   43.3290   52.1130 C   0  0  0  0  0  0  0  0  0  0  0  0
    4.2350   44.2770   52.5290 C   0  0  0  0  0  0  0  0  0  0  0  0
    5.5670   44.4250   52.2120 C   0  0  0  0  0  0  0  0  0  0  0  0
    5.9940   45.5390   52.9400 C   0  0  0  0  0  0  0  0  0  0  0  0
    7.3680   46.1000   52.9280 C   0  0  0  0  0  0  0  0  0  0  0  0
    8.1420   46.0770   51.7530 C   0  0  0  0  0  0  0  0  0  0  0  0
    9.4350   46.6100   51.7450 C   0  0  0  0  0  0  0  0  0  0  0  0
    9.9710   47.1670   52.9080 C   0  0  0  0  0  0  0  0  0  0  0  0
    9.2140   47.1930   54.0810 C   0  0  0  0  0  0  0  0  0  0  0  0
    7.9200   46.6640   54.0930 C   0  0  0  0  0  0  0  0  0  0  0  0
    4.9700   46.0510   53.6690 N   0  0  0  0  0  0  0  0  0  0  0  0
    3.9070   45.2730   53.4060 C   0  0  0  0  0  0  0  0  0  0  0  0
    2.6180   45.4020   53.9220 C   0  0  0  0  0  0  0  0  0  0  0  0
   -0.8280   44.9620   53.1810 N   0  0  0  0  0  0  0  0  0  0  0  0
   -2.2830   45.1460   53.3400 C   0  0  0  0  0  0  0  0  0  0  0  0
   -2.5760   45.3610   51.8840 C   0  0  0  0  0  0  0  0  0  0  0  0
   -3.0050   46.7290   51.5320 N   0  0  0  0  0  0  0  0  0  0  0  0
   -3.8890   46.7500   50.3540 C   0  0  0  0  0  0  0  0  0  0  0  0
   -3.4690   47.8420   49.3420 C   0  0  0  0  0  0  0  0  0  0  0  0
   -3.9440   47.4650   47.9310 C   0  0  0  0  0  0  0  0  0  0  0  0
   -3.4030   46.2450   47.4340 O   0  0  0  0  0  0  0  0  0  0  0  0
   -3.0120   45.3220   48.4440 C   0  0  0  0  0  0  0  0  0  0  0  0
   -3.9100   45.3560   49.6910 C   0  0  0  0  0  0  0  0  0  0  0  0
   -1.0960   45.1820   51.7450 C   0  0  0  0  0  0  0  0  0  0  0  0
    1.2406   42.6865   52.3153 H   0  0  0  0  0  0  0  0  0  0  0  0
    3.5864   42.5285   51.4126 H   0  0  0  0  0  0  0  0  0  0  0  0
    6.1658   43.8009   51.5323 H   0  0  0  0  0  0  0  0  0  0  0  0
    7.7271   45.6367   50.8343 H   0  0  0  0  0  0  0  0  0  0  0  0
   10.0310   46.5904   50.8207 H   0  0  0  0  0  0  0  0  0  0  0  0
   10.9885   47.5848   52.9000 H   0  0  0  0  0  0  0  0  0  0  0  0
    9.6366   47.6306   54.9975 H   0  0  0  0  0  0  0  0  0  0  0  0
    7.3288   46.6889   55.0203 H   0  0  0  0  0  0  0  0  0  0  0  0
    4.9830   46.8890   54.2910 H   0  0  0  0  0  0  0  0  0  0  0  0
    2.3705   46.2066   54.6300 H   0  0  0  0  0  0  0  0  0  0  0  0
   -2.7819   44.2538   53.7463 H   0  0  0  0  0  0  0  0  0  0  0  0
   -2.6158   45.9276   54.0388 H   0  0  0  0  0  0  0  0  0  0  0  0
   -3.3416   44.7919   51.3363 H   0  0  0  0  0  0  0  0  0  0  0  0
   -3.4580   47.2180   52.3410 H   0  0  0  0  0  0  0  0  0  0  0  0
   -4.9059   47.0004   50.6905 H   0  0  0  0  0  0  0  0  0  0  0  0
   -3.9209   48.8015   49.6337 H   0  0  0  0  0  0  0  0  0  0  0  0
   -2.3725   47.9295   49.3413 H   0  0  0  0  0  0  0  0  0  0  0  0
   -5.0399   47.3726   47.9503 H   0  0  0  0  0  0  0  0  0  0  0  0
   -3.5922   48.2612   47.2584 H   0  0  0  0  0  0  0  0  0  0  0  0
   -3.0449   44.3077   48.0195 H   0  0  0  0  0  0  0  0  0  0  0  0
   -2.0003   45.6080   48.7676 H   0  0  0  0  0  0  0  0  0  0  0  0
   -4.9419   45.1136   49.3972 H   0  0  0  0  0  0  0  0  0  0  0  0
   -3.5306   44.6195   50.4146 H   0  0  0  0  0  0  0  0  0  0  0  0
   -0.8300   44.3128   51.1256 H   0  0  0  0  0  0  0  0  0  0  0  0
   -0.5383   45.9906   51.2499 H   0  0  0  0  0  0  0  0  0  0  0  0
  1  2  2  0
  2  3  1  0
  3  4  2  0
  4  5  1  0
  5  6  2  0
  6  7  1  0
  7  8  2  0
  8  9  1  0
  9 10  2  0
 10 11  1  0
 11 12  2  0
 12 13  1  0
 13 14  2  0
  8 15  1  0
 15 16  1  0
 16 17  2  0
  2 18  1  0
 18 19  1  0
 19 20  1  0
 20 21  1  0
 21 22  1  0
 22 23  1  0
 23 24  1  0
 24 25  1  0
 25 26  1  0
 26 27  1  0
 20 28  1  0
 17  3  1  0
 28 18  1  0
 16  6  1  0
 27 22  1  0
 14  9  1  0
  4 29  1  0
  5 30  1  0
  7 31  1  0
 10 32  1  0
 11 33  1  0
 12 34  1  0
 13 35  1  0
 14 36  1  0
 15 37  1  0
 17 38  1  0
 19 39  1  0
 19 40  1  0
 20 41  1  0
 21 42  1  0
 22 43  1  0
 23 44  1  0
 23 45  1  0
 24 46  1  0
 24 47  1  0
 26 48  1  0
 26 49  1  0
 27 50  1  0
 27 51  1  0
 28 52  1  0
 28 53  1  0
M  END
>  <meeko>  (3) 
{"is_sidechain": [false], "free_energy": -8.52, "intermolecular_energy": -10.506, "internal_energy": -0.523}

$$$$
ligand_46_conformer_4_docked
     RDKit          3D

 53 57  0  0  0  0  0  0  0  0999 V2000
    3.5040   42.3080   51.6210 O   0  0  0  0  0  0  0  0  0  0  0  0
    3.3550   43.3340   52.3370 C   0  0  0  0  0  0  0  0  0  0  0  0
    2.1020   43.5140   53.1010 C   0  0  0  0  0  0  0  0  0  0  0  0
    0.9980   42.6560   52.8550 C   0  0  0  0  0  0  0  0  0  0  0  0
   -0.2030   42.8060   53.5730 C   0  0  0  0  0  0  0  0  0  0  0  0
   -0.2730   43.8250   54.5160 C   0  0  0  0  0  0  0  0  0  0  0  0
   -1.3030   44.2050   55.3480 C   0  0  0  0  0  0  0  0  0  0  0  0
   -0.8090   45.3010   56.0620 C   0  0  0  0  0  0  0  0  0  0  0  0
   -1.5560   46.0650   57.0920 C   0  0  0  0  0  0  0  0  0  0  0  0
   -2.8520   45.6710   57.4770 C   0  0  0  0  0  0  0  0  0  0  0  0
   -3.5520   46.3910   58.4510 C   0  0  0  0  0  0  0  0  0  0  0  0
   -2.9700   47.5110   59.0480 C   0  0  0  0  0  0  0  0  0  0  0  0
   -1.6860   47.9130   58.6730 C   0  0  0  0  0  0  0  0  0  0  0  0
   -0.9820   47.1960   57.7020 C   0  0  0  0  0  0  0  0  0  0  0  0
    0.4650   45.5790   55.6850 N   0  0  0  0  0  0  0  0  0  0  0  0
    0.7760   44.6710   54.7460 C   0  0  0  0  0  0  0  0  0  0  0  0
    1.9810   44.5490   54.0560 C   0  0  0  0  0  0  0  0  0  0  0  0
    4.4240   44.2780   52.4260 N   0  0  0  0  0  0  0  0  0  0  0  0
    5.7700   44.4130   51.8390 C   0  0  0  0  0  0  0  0  0  0  0  0
    6.2010   45.5700   52.6920 C   0  0  0  0  0  0  0  0  0  0  0  0
    6.3660   46.8470   51.9700 N   0  0  0  0  0  0  0  0  0  0  0  0
    7.4720   47.6550   52.5130 C   0  0  0  0  0  0  0  0  0  0  0  0
    7.9070   47.1640   53.9140 C   0  0  0  0  0  0  0  0  0  0  0  0
    9.3680   47.5530   54.1800 C   0  0  0  0  0  0  0  0  0  0  0  0
   10.3030   46.9920   53.2630 O   0  0  0  0  0  0  0  0  0  0  0  0
    9.7550   46.6730   51.9890 C   0  0  0  0  0  0  0  0  0  0  0  0
    8.6600   47.6460   51.5270 C   0  0  0  0  0  0  0  0  0  0  0  0
    4.8270   45.4230   53.2680 C   0  0  0  0  0  0  0  0  0  0  0  0
    1.0823   41.8653   52.0949 H   0  0  0  0  0  0  0  0  0  0  0  0
   -1.0588   42.1385   53.3938 H   0  0  0  0  0  0  0  0  0  0  0  0
   -2.2989   43.7455   55.4324 H   0  0  0  0  0  0  0  0  0  0  0  0
   -3.3171   44.7911   57.0087 H   0  0  0  0  0  0  0  0  0  0  0  0
   -4.5629   46.0742   58.7471 H   0  0  0  0  0  0  0  0  0  0  0  0
   -3.5223   48.0763   59.8131 H   0  0  0  0  0  0  0  0  0  0  0  0
   -1.2281   48.7958   59.1430 H   0  0  0  0  0  0  0  0  0  0  0  0
    0.0290   47.5182   57.4120 H   0  0  0  0  0  0  0  0  0  0  0  0
    1.0940   46.3250   56.0560 H   0  0  0  0  0  0  0  0  0  0  0  0
    2.8152   45.2395   54.2495 H   0  0  0  0  0  0  0  0  0  0  0  0
    6.3914   43.5183   51.9918 H   0  0  0  0  0  0  0  0  0  0  0  0
    5.8298   44.5451   50.7486 H   0  0  0  0  0  0  0  0  0  0  0  0
    7.1378   45.5735   53.2685 H   0  0  0  0  0  0  0  0  0  0  0  0
    6.4880   46.7020   50.9390 H   0  0  0  0  0  0  0  0  0  0  0  0
    7.1161   48.6888   52.6334 H   0  0  0  0  0  0  0  0  0  0  0  0
    7.2631   47.6254   54.6772 H   0  0  0  0  0  0  0  0  0  0  0  0
    7.8129   46.0689   53.9566 H   0  0  0  0  0  0  0  0  0  0  0  0
    9.4476   48.6487   54.1253 H   0  0  0  0  0  0  0  0  0  0  0  0
    9.6234   47.1534   55.1725 H   0  0  0  0  0  0  0  0  0  0  0  0
   10.5677   46.6874   51.2478 H   0  0  0  0  0  0  0  0  0  0  0  0
    9.2870   45.6816   52.0793 H   0  0  0  0  0  0  0  0  0  0  0  0
    9.0829   48.6595   51.4649 H   0  0  0  0  0  0  0  0  0  0  0  0
    8.2944   47.3185   50.5426 H   0  0  0  0  0  0  0  0  0  0  0  0
    4.8404   45.1773   54.3401 H   0  0  0  0  0  0  0  0  0  0  0  0
    4.1785   46.3113   53.2483 H   0  0  0  0  0  0  0  0  0  0  0  0
  1  2  2  0
  2  3  1  0
  3  4  2  0
  4  5  1  0
  5  6  2  0
  6  7  1  0
  7  8  2  0
  8  9  1  0
  9 10  2  0
 10 11  1  0
 11 12  2  0
 12 13  1  0
 13 14  2  0
  8 15  1  0
 15 16  1  0
 16 17  2  0
  2 18  1  0
 18 19  1  0
 19 20  1  0
 20 21  1  0
 21 22  1  0
 22 23  1  0
 23 24  1  0
 24 25  1  0
 25 26  1  0
 26 27  1  0
 20 28  1  0
 17  3  1  0
 28 18  1  0
 16  6  1  0
 27 22  1  0
 14  9  1  0
  4 29  1  0
  5 30  1  0
  7 31  1  0
 10 32  1  0
 11 33  1  0
 12 34  1  0
 13 35  1  0
 14 36  1  0
 15 37  1  0
 17 38  1  0
 19 39  1  0
 19 40  1  0
 20 41  1  0
 21 42  1  0
 22 43  1  0
 23 44  1  0
 23 45  1  0
 24 46  1  0
 24 47  1  0
 26 48  1  0
 26 49  1  0
 27 50  1  0
 27 51  1  0
 28 52  1  0
 28 53  1  0
M  END
>  <meeko>  (4) 
{"is_sidechain": [false], "free_energy": -8.513, "intermolecular_energy": -10.746, "internal_energy": -0.273}

$$$$
ligand_46_conformer_4_docked
     RDKit          3D

 53 57  0  0  0  0  0  0  0  0999 V2000
   -0.8600   44.9510   53.7950 O   0  0  0  0  0  0  0  0  0  0  0  0
   -0.2720   44.6160   52.7320 C   0  0  0  0  0  0  0  0  0  0  0  0
    1.1970   44.4580   52.7310 C   0  0  0  0  0  0  0  0  0  0  0  0
    1.7650   43.1580   52.6660 C   0  0  0  0  0  0  0  0  0  0  0  0
    3.1600   42.9820   52.6600 C   0  0  0  0  0  0  0  0  0  0  0  0
    3.9590   44.1190   52.7310 C   0  0  0  0  0  0  0  0  0  0  0  0
    5.3300   44.2500   52.7470 C   0  0  0  0  0  0  0  0  0  0  0  0
    5.5630   45.6250   52.8470 C   0  0  0  0  0  0  0  0  0  0  0  0
    6.8990   46.2690   52.9000 C   0  0  0  0  0  0  0  0  0  0  0  0
    7.6220   46.5190   51.7180 C   0  0  0  0  0  0  0  0  0  0  0  0
    8.8790   47.1300   51.7710 C   0  0  0  0  0  0  0  0  0  0  0  0
    9.4290   47.4950   53.0010 C   0  0  0  0  0  0  0  0  0  0  0  0
    8.7230   47.2510   54.1810 C   0  0  0  0  0  0  0  0  0  0  0  0
    7.4660   46.6430   54.1330 C   0  0  0  0  0  0  0  0  0  0  0  0
    4.3890   46.3040   52.8890 N   0  0  0  0  0  0  0  0  0  0  0  0
    3.4230   45.3730   52.8140 C   0  0  0  0  0  0  0  0  0  0  0  0
    2.0460   45.5850   52.8200 C   0  0  0  0  0  0  0  0  0  0  0  0
   -1.0510   44.3540   51.5630 N   0  0  0  0  0  0  0  0  0  0  0  0
   -2.4830   44.3950   51.2110 C   0  0  0  0  0  0  0  0  0  0  0  0
   -2.3360   43.7470   49.8660 C   0  0  0  0  0  0  0  0  0  0  0  0
   -2.6010   44.6340   48.7170 N   0  0  0  0  0  0  0  0  0  0  0  0
   -3.5490   44.0390   47.7590 C   0  0  0  0  0  0  0  0  0  0  0  0
   -3.5110   44.7590   46.3910 C   0  0  0  0  0  0  0  0  0  0  0  0
   -3.9800   43.8090   45.2800 C   0  0  0  0  0  0  0  0  0  0  0  0
   -3.1780   42.6410   45.1270 O   0  0  0  0  0  0  0  0  0  0  0  0
   -2.4810   42.2500   46.3040 C   0  0  0  0  0  0  0  0  0  0  0  0
   -3.2550   42.5310   47.6010 C   0  0  0  0  0  0  0  0  0  0  0  0
   -0.8860   43.7240   50.2360 C   0  0  0  0  0  0  0  0  0  0  0  0
    1.1059   42.2785   52.6198 H   0  0  0  0  0  0  0  0  0  0  0  0
    3.6053   41.9779   52.6011 H   0  0  0  0  0  0  0  0  0  0  0  0
    6.0795   43.4467   52.6928 H   0  0  0  0  0  0  0  0  0  0  0  0
    7.1951   46.2317   50.7458 H   0  0  0  0  0  0  0  0  0  0  0  0
    9.4352   47.3233   50.8418 H   0  0  0  0  0  0  0  0  0  0  0  0
   10.4181   47.9746   53.0408 H   0  0  0  0  0  0  0  0  0  0  0  0
    9.1574   47.5380   55.1500 H   0  0  0  0  0  0  0  0  0  0  0  0
    6.9149   46.4550   55.0663 H   0  0  0  0  0  0  0  0  0  0  0  0
    4.2490   47.3370   52.9420 H   0  0  0  0  0  0  0  0  0  0  0  0
    1.6309   46.6011   52.8920 H   0  0  0  0  0  0  0  0  0  0  0  0
   -3.1064   43.8062   51.8999 H   0  0  0  0  0  0  0  0  0  0  0  0
   -2.9782   45.3767   51.2422 H   0  0  0  0  0  0  0  0  0  0  0  0
   -2.9285   42.8747   49.5531 H   0  0  0  0  0  0  0  0  0  0  0  0
   -2.9310   45.5820   49.0200 H   0  0  0  0  0  0  0  0  0  0  0  0
   -4.5662   44.1657   48.1580 H   0  0  0  0  0  0  0  0  0  0  0  0
   -4.1740   45.6361   46.4233 H   0  0  0  0  0  0  0  0  0  0  0  0
   -2.4791   45.0765   46.1805 H   0  0  0  0  0  0  0  0  0  0  0  0
   -5.0083   43.4927   45.5091 H   0  0  0  0  0  0  0  0  0  0  0  0
   -3.9038   44.3682   44.3358 H   0  0  0  0  0  0  0  0  0  0  0  0
   -2.2801   41.1700   46.2463 H   0  0  0  0  0  0  0  0  0  0  0  0
   -1.5577   42.8465   46.3445 H   0  0  0  0  0  0  0  0  0  0  0  0
   -4.2069   41.9802   47.5776 H   0  0  0  0  0  0  0  0  0  0  0  0
   -2.6395   42.2045   48.4522 H   0  0  0  0  0  0  0  0  0  0  0  0
   -0.4801   42.7035   50.2983 H   0  0  0  0  0  0  0  0  0  0  0  0
   -0.1839   44.2037   49.5382 H   0  0  0  0  0  0  0  0  0  0  0  0
  1  2  2  0
  2  3  1  0
  3  4  2  0
  4  5  1  0
  5  6  2  0
  6  7  1  0
  7  8  2  0
  8  9  1  0
  9 10  2  0
 10 11  1  0
 11 12  2  0
 12 13  1  0
 13 14  2  0
  8 15  1  0
 15 16  1  0
 16 17  2  0
  2 18  1  0
 18 19  1  0
 19 20  1  0
 20 21  1  0
 21 22  1  0
 22 23  1  0
 23 24  1  0
 24 25  1  0
 25 26  1  0
 26 27  1  0
 20 28  1  0
 17  3  1  0
 28 18  1  0
 16  6  1  0
 27 22  1  0
 14  9  1  0
  4 29  1  0
  5 30  1  0
  7 31  1  0
 10 32  1  0
 11 33  1  0
 12 34  1  0
 13 35  1  0
 14 36  1  0
 15 37  1  0
 17 38  1  0
 19 39  1  0
 19 40  1  0
 20 41  1  0
 21 42  1  0
 22 43  1  0
 23 44  1  0
 23 45  1  0
 24 46  1  0
 24 47  1  0
 26 48  1  0
 26 49  1  0
 27 50  1  0
 27 51  1  0
 28 52  1  0
 28 53  1  0
M  END
>  <meeko>  (5) 
{"is_sidechain": [false], "free_energy": -7.568, "intermolecular_energy": -9.2, "internal_energy": -0.653}

$$$$
