MODEL 1
REMARK VINA RESULT:    -8.707      0.000      0.000
REMARK INTER + INTRA:         -10.854
REMARK INTER:                 -10.488
REMARK INTRA:                  -0.366
REMARK UNBOUND:                -0.366
REMARK SMILES Cc1nc(N2CC[C@H](CO)C2)c2cnn(-c3ccccc3)c2n1
REMARK SMILES IDX 5 1 6 2 7 3 8 4 11 5 4 6 2 7 3 8 23 9 22 10 12 11 15 12
REMARK SMILES IDX 13 13 14 14 1 15 16 16 17 17 21 18 18 19 20 20 19 21 9 22
REMARK SMILES IDX 10 23
REMARK H PARENT 10 24
ROOT
ATOM      1  N   UNL     1       1.752  44.943  54.669  1.00  0.00    -0.356 N 
ATOM      2  C   UNL     1       0.472  45.320  54.094  1.00  0.00     0.118 C 
ATOM      3  C   UNL     1      -0.567  45.034  55.170  1.00  0.00     0.029 C 
ATOM      4  C   UNL     1       0.211  44.960  56.491  1.00  0.00     0.036 C 
ATOM      5  C   UNL     1       1.643  44.600  56.080  1.00  0.00     0.124 C 
ENDROOT
BRANCH   1   6
ATOM      6  C   UNL     1       2.995  44.811  53.948  1.00  0.00     0.143 A 
ATOM      7  C   UNL     1       4.266  43.655  52.274  1.00  0.00     0.130 A 
ATOM      8  N   UNL     1       3.118  43.834  52.998  1.00  0.00    -0.215 NA
ATOM      9  N   UNL     1       5.338  44.475  52.474  1.00  0.00    -0.213 NA
ATOM     10  C   UNL     1       5.248  45.435  53.425  1.00  0.00     0.168 A 
ATOM     11  C   UNL     1       4.114  45.635  54.156  1.00  0.00     0.082 A 
ATOM     12  N   UNL     1       6.186  46.340  53.759  1.00  0.00    -0.215 N 
ATOM     13  C   UNL     1       4.412  46.718  54.968  1.00  0.00     0.150 A 
ATOM     14  N   UNL     1       5.675  47.129  54.698  1.00  0.00    -0.174 NA
ATOM     15  C   UNL     1       4.321  42.603  51.218  1.00  0.00     0.090 C 
BRANCH  12  16
ATOM     16  C   UNL     1       7.511  46.499  53.217  1.00  0.00     0.067 A 
ATOM     17  C   UNL     1       7.755  46.382  51.835  1.00  0.00     0.028 A 
ATOM     18  C   UNL     1       8.595  46.740  54.080  1.00  0.00     0.028 A 
ATOM     19  C   UNL     1       9.050  46.530  51.330  1.00  0.00     0.002 A 
ATOM     20  C   UNL     1       9.888  46.889  53.570  1.00  0.00     0.002 A 
ATOM     21  C   UNL     1      10.115  46.787  52.196  1.00  0.00     0.000 A 
ENDBRANCH  12  16
ENDBRANCH   1   6
BRANCH   4  22
ATOM     22  C   UNL     1       0.168  46.298  57.254  1.00  0.00     0.161 C 
BRANCH  22  23
ATOM     23  O   UNL     1       1.375  46.525  57.930  1.00  0.00    -0.396 OA
ATOM     24  H   UNL     1       1.990  46.954  57.278  1.00  0.00     0.210 HD
ENDBRANCH  22  23
ENDBRANCH   4  22
TORSDOF 4
ENDMDL
MODEL 2
REMARK VINA RESULT:    -8.664      1.347      1.755
REMARK INTER + INTRA:         -10.803
REMARK INTER:                 -10.557
REMARK INTRA:                  -0.246
REMARK UNBOUND:                -0.366
REMARK SMILES Cc1nc(N2CC[C@H](CO)C2)c2cnn(-c3ccccc3)c2n1
REMARK SMILES IDX 5 1 6 2 7 3 8 4 11 5 4 6 2 7 3 8 23 9 22 10 12 11 15 12
REMARK SMILES IDX 13 13 14 14 1 15 16 16 17 17 21 18 18 19 20 20 19 21 9 22
REMARK SMILES IDX 10 23
REMARK H PARENT 10 24
ROOT
ATOM      1  N   UNL     1       1.733  44.810  54.305  1.00  0.00    -0.356 N 
ATOM      2  C   UNL     1       1.493  44.928  55.733  1.00  0.00     0.118 C 
ATOM      3  C   UNL     1       0.024  45.303  55.877  1.00  0.00     0.029 C 
ATOM      4  C   UNL     1      -0.638  44.911  54.550  1.00  0.00     0.036 C 
ATOM      5  C   UNL     1       0.505  44.911  53.530  1.00  0.00     0.124 C 
ENDROOT
BRANCH   1   6
ATOM      6  C   UNL     1       3.026  44.706  53.671  1.00  0.00     0.143 A 
ATOM      7  C   UNL     1       4.438  43.571  52.100  1.00  0.00     0.130 A 
ATOM      8  N   UNL     1       3.239  43.724  52.743  1.00  0.00    -0.215 NA
ATOM      9  N   UNL     1       5.472  44.421  52.364  1.00  0.00    -0.213 NA
ATOM     10  C   UNL     1       5.291  45.386  53.296  1.00  0.00     0.168 A 
ATOM     11  C   UNL     1       4.105  45.562  53.946  1.00  0.00     0.082 A 
ATOM     12  N   UNL     1       6.180  46.320  53.683  1.00  0.00    -0.215 N 
ATOM     13  C   UNL     1       4.318  46.660  54.765  1.00  0.00     0.150 A 
ATOM     14  N   UNL     1       5.584  47.103  54.577  1.00  0.00    -0.174 NA
ATOM     15  C   UNL     1       4.595  42.510  51.061  1.00  0.00     0.090 C 
BRANCH  12  16
ATOM     16  C   UNL     1       7.534  46.510  53.232  1.00  0.00     0.067 A 
ATOM     17  C   UNL     1       7.879  46.366  51.874  1.00  0.00     0.028 A 
ATOM     18  C   UNL     1       8.545  46.811  54.161  1.00  0.00     0.028 A 
ATOM     19  C   UNL     1       9.201  46.546  51.458  1.00  0.00     0.002 A 
ATOM     20  C   UNL     1       9.865  46.992  53.739  1.00  0.00     0.002 A 
ATOM     21  C   UNL     1      10.193  46.862  52.388  1.00  0.00     0.000 A 
ENDBRANCH  12  16
ENDBRANCH   1   6
BRANCH   4  22
ATOM     22  C   UNL     1      -1.312  43.528  54.636  1.00  0.00     0.161 C 
BRANCH  22  23
ATOM     23  O   UNL     1      -0.623  42.589  53.854  1.00  0.00    -0.396 OA
ATOM     24  H   UNL     1      -0.989  42.661  52.934  1.00  0.00     0.210 HD
ENDBRANCH  22  23
ENDBRANCH   4  22
TORSDOF 4
ENDMDL
MODEL 3
REMARK VINA RESULT:    -8.477      1.531      1.967
REMARK INTER + INTRA:         -10.578
REMARK INTER:                 -10.111
REMARK INTRA:                  -0.467
REMARK UNBOUND:                -0.366
REMARK SMILES Cc1nc(N2CC[C@H](CO)C2)c2cnn(-c3ccccc3)c2n1
REMARK SMILES IDX 5 1 6 2 7 3 8 4 11 5 4 6 2 7 3 8 23 9 22 10 12 11 15 12
REMARK SMILES IDX 13 13 14 14 1 15 16 16 17 17 21 18 18 19 20 20 19 21 9 22
REMARK SMILES IDX 10 23
REMARK H PARENT 10 24
ROOT
ATOM      1  N   UNL     1       1.427  44.434  52.931  1.00  0.00    -0.356 N 
ATOM      2  C   UNL     1       0.435  45.308  52.327  1.00  0.00     0.118 C 
ATOM      3  C   UNL     1      -0.918  44.770  52.774  1.00  0.00     0.029 C 
ATOM      4  C   UNL     1      -0.635  43.902  54.007  1.00  0.00     0.036 C 
ATOM      5  C   UNL     1       0.833  43.487  53.862  1.00  0.00     0.124 C 
ENDROOT
BRANCH   1   6
ATOM      6  C   UNL     1       2.833  44.401  52.605  1.00  0.00     0.143 A 
ATOM      7  C   UNL     1       4.629  43.320  51.439  1.00  0.00     0.130 A 
ATOM      8  N   UNL     1       3.309  43.409  51.792  1.00  0.00    -0.215 NA
ATOM      9  N   UNL     1       5.523  44.248  51.887  1.00  0.00    -0.213 NA
ATOM     10  C   UNL     1       5.079  45.227  52.711  1.00  0.00     0.168 A 
ATOM     11  C   UNL     1       3.769  45.339  53.073  1.00  0.00     0.082 A 
ATOM     12  N   UNL     1       5.799  46.231  53.243  1.00  0.00    -0.215 N 
ATOM     13  C   UNL     1       3.725  46.473  53.868  1.00  0.00     0.150 A 
ATOM     14  N   UNL     1       4.972  46.997  53.946  1.00  0.00    -0.174 NA
ATOM     15  C   UNL     1       5.078  42.243  50.510  1.00  0.00     0.090 C 
BRANCH  12  16
ATOM     16  C   UNL     1       7.205  46.502  53.095  1.00  0.00     0.067 A 
ATOM     17  C   UNL     1       8.033  46.706  54.216  1.00  0.00     0.028 A 
ATOM     18  C   UNL     1       7.767  46.602  51.809  1.00  0.00     0.028 A 
ATOM     19  C   UNL     1       9.394  46.978  54.050  1.00  0.00     0.002 A 
ATOM     20  C   UNL     1       9.128  46.873  51.649  1.00  0.00     0.002 A 
ATOM     21  C   UNL     1       9.943  47.058  52.768  1.00  0.00     0.000 A 
ENDBRANCH  12  16
ENDBRANCH   1   6
BRANCH   4  22
ATOM     22  C   UNL     1      -0.869  44.680  55.317  1.00  0.00     0.161 C 
BRANCH  22  23
ATOM     23  O   UNL     1      -1.792  45.718  55.120  1.00  0.00    -0.396 OA
ATOM     24  H   UNL     1      -2.534  45.340  54.579  1.00  0.00     0.210 HD
ENDBRANCH  22  23
ENDBRANCH   4  22
TORSDOF 4
ENDMDL
MODEL 4
REMARK VINA RESULT:    -8.129      2.864      7.095
REMARK INTER + INTRA:         -10.159
REMARK INTER:                  -9.734
REMARK INTRA:                  -0.425
REMARK UNBOUND:                -0.366
REMARK SMILES Cc1nc(N2CC[C@H](CO)C2)c2cnn(-c3ccccc3)c2n1
REMARK SMILES IDX 5 1 6 2 7 3 8 4 11 5 4 6 2 7 3 8 23 9 22 10 12 11 15 12
REMARK SMILES IDX 13 13 14 14 1 15 16 16 17 17 21 18 18 19 20 20 19 21 9 22
REMARK SMILES IDX 10 23
REMARK H PARENT 10 24
ROOT
ATOM      1  N   UNL     1       7.115  46.261  52.251  1.00  0.00    -0.356 N 
ATOM      2  C   UNL     1       7.963  46.940  51.286  1.00  0.00     0.118 C 
ATOM      3  C   UNL     1       8.661  48.052  52.058  1.00  0.00     0.029 C 
ATOM      4  C   UNL     1       8.554  47.663  53.539  1.00  0.00     0.036 C 
ATOM      5  C   UNL     1       7.338  46.734  53.609  1.00  0.00     0.124 C 
ENDROOT
BRANCH   1   6
ATOM      6  C   UNL     1       6.087  45.297  51.940  1.00  0.00     0.143 A 
ATOM      7  C   UNL     1       5.468  43.272  50.813  1.00  0.00     0.130 A 
ATOM      8  N   UNL     1       6.392  44.226  51.144  1.00  0.00    -0.215 NA
ATOM      9  N   UNL     1       4.192  43.356  51.290  1.00  0.00    -0.213 NA
ATOM     10  C   UNL     1       3.862  44.419  52.061  1.00  0.00     0.168 A 
ATOM     11  C   UNL     1       4.765  45.380  52.408  1.00  0.00     0.082 A 
ATOM     12  N   UNL     1       2.669  44.672  52.630  1.00  0.00    -0.215 N 
ATOM     13  C   UNL     1       4.054  46.247  53.223  1.00  0.00     0.150 A 
ATOM     14  N   UNL     1       2.786  45.785  53.346  1.00  0.00    -0.174 NA
ATOM     15  C   UNL     1       5.874  42.102  49.980  1.00  0.00     0.090 C 
BRANCH  12  16
ATOM     16  C   UNL     1       1.454  43.903  52.544  1.00  0.00     0.067 A 
ATOM     17  C   UNL     1       1.153  42.904  53.491  1.00  0.00     0.028 A 
ATOM     18  C   UNL     1       0.562  44.120  51.479  1.00  0.00     0.028 A 
ATOM     19  C   UNL     1      -0.027  42.161  53.384  1.00  0.00     0.002 A 
ATOM     20  C   UNL     1      -0.616  43.376  51.378  1.00  0.00     0.002 A 
ATOM     21  C   UNL     1      -0.913  42.399  52.330  1.00  0.00     0.000 A 
ENDBRANCH  12  16
ENDBRANCH   1   6
BRANCH   4  22
ATOM     22  C   UNL     1       9.829  46.953  54.034  1.00  0.00     0.161 C 
BRANCH  22  23
ATOM     23  O   UNL     1      10.111  47.307  55.362  1.00  0.00    -0.396 OA
ATOM     24  H   UNL     1       9.735  46.588  55.934  1.00  0.00     0.210 HD
ENDBRANCH  22  23
ENDBRANCH   4  22
TORSDOF 4
ENDMDL
MODEL 5
REMARK VINA RESULT:    -6.297      3.441      7.427
REMARK INTER + INTRA:          -7.952
REMARK INTER:                  -7.636
REMARK INTRA:                  -0.315
REMARK UNBOUND:                -0.366
REMARK SMILES Cc1nc(N2CC[C@H](CO)C2)c2cnn(-c3ccccc3)c2n1
REMARK SMILES IDX 5 1 6 2 7 3 8 4 11 5 4 6 2 7 3 8 23 9 22 10 12 11 15 12
REMARK SMILES IDX 13 13 14 14 1 15 16 16 17 17 21 18 18 19 20 20 19 21 9 22
REMARK SMILES IDX 10 23
REMARK H PARENT 10 24
ROOT
ATOM      1  N   UNL     1       4.513  45.368  53.228  1.00  0.00    -0.356 N 
ATOM      2  C   UNL     1       4.247  46.767  53.521  1.00  0.00     0.118 C 
ATOM      3  C   UNL     1       5.313  47.190  54.523  1.00  0.00     0.029 C 
ATOM      4  C   UNL     1       6.438  46.154  54.398  1.00  0.00     0.036 C 
ATOM      5  C   UNL     1       5.756  44.906  53.827  1.00  0.00     0.124 C 
ENDROOT
BRANCH   1   6
ATOM      6  C   UNL     1       3.631  44.472  52.518  1.00  0.00     0.143 A 
ATOM      7  C   UNL     1       3.381  42.496  51.182  1.00  0.00     0.130 A 
ATOM      8  N   UNL     1       4.158  43.389  51.870  1.00  0.00    -0.215 NA
ATOM      9  N   UNL     1       2.026  42.659  51.135  1.00  0.00    -0.213 NA
ATOM     10  C   UNL     1       1.485  43.737  51.750  1.00  0.00     0.168 A 
ATOM     11  C   UNL     1       2.238  44.637  52.445  1.00  0.00     0.082 A 
ATOM     12  N   UNL     1       0.181  44.061  51.824  1.00  0.00    -0.215 N 
ATOM     13  C   UNL     1       1.318  45.543  52.950  1.00  0.00     0.150 A 
ATOM     14  N   UNL     1       0.077  45.162  52.562  1.00  0.00    -0.174 NA
ATOM     15  C   UNL     1       4.009  41.307  50.536  1.00  0.00     0.090 C 
BRANCH  12  16
ATOM     16  C   UNL     1      -0.948  43.371  51.257  1.00  0.00     0.067 A 
ATOM     17  C   UNL     1      -1.524  43.788  50.041  1.00  0.00     0.028 A 
ATOM     18  C   UNL     1      -1.516  42.280  51.939  1.00  0.00     0.028 A 
ATOM     19  C   UNL     1      -2.627  43.110  49.512  1.00  0.00     0.002 A 
ATOM     20  C   UNL     1      -2.617  41.605  51.405  1.00  0.00     0.002 A 
ATOM     21  C   UNL     1      -3.171  42.017  50.191  1.00  0.00     0.000 A 
ENDBRANCH  12  16
ENDBRANCH   1   6
BRANCH   4  22
ATOM     22  C   UNL     1       7.567  46.648  53.473  1.00  0.00     0.161 C 
BRANCH  22  23
ATOM     23  O   UNL     1       7.341  47.975  53.077  1.00  0.00    -0.396 OA
ATOM     24  H   UNL     1       7.735  48.553  53.782  1.00  0.00     0.210 HD
ENDBRANCH  22  23
ENDBRANCH   4  22
TORSDOF 4
ENDMDL
