MODEL 1
REMARK VINA RESULT:    -8.478      0.000      0.000
REMARK INTER + INTRA:         -13.237
REMARK INTER:                 -12.938
REMARK INTRA:                  -0.298
REMARK UNBOUND:                -0.298
REMARK SMILES COc1cc(OC)cc(S(=O)(=O)Nc2cc(S(=O)(=O)NC(C)(C)C)ccc2OC)c1
REMARK SMILES IDX 14 1 15 2 16 3 25 4 26 5 27 6 13 7 10 9 11 10 12 11 9 12
REMARK SMILES IDX 3 13 4 14 30 15 5 16 8 17 2 18 1 19 6 20 7 21 28 22 29 23
REMARK SMILES IDX 17 24 18 25 19 26 20 27 21 29 22 30 23 31 24 32
REMARK H PARENT 13 8 20 28
ROOT
ATOM      1  C   UNL     1       3.528  43.245  52.493  1.00  0.00     0.092 A 
ATOM      2  C   UNL     1       4.265  44.244  53.152  1.00  0.00     0.052 A 
ATOM      3  C   UNL     1       5.428  44.771  52.582  1.00  0.00     0.084 A 
ATOM      4  C   UNL     1       5.853  44.316  51.330  1.00  0.00     0.026 A 
ATOM      5  C   UNL     1       5.117  43.343  50.651  1.00  0.00     0.050 A 
ATOM      6  C   UNL     1       3.951  42.797  51.224  1.00  0.00     0.143 A 
ENDROOT
BRANCH   1   7
ATOM      7  N   UNL     1       2.349  42.678  53.095  1.00  0.00    -0.276 N 
ATOM      8  H   UNL     1       2.445  41.927  53.814  1.00  0.00     0.180 HD
BRANCH   7   9
ATOM      9  S   UNL     1       0.753  43.318  52.847  1.00  0.00     0.262 S 
ATOM     10  O   UNL     1      -0.163  42.216  52.396  1.00  0.00    -0.201 OA
ATOM     11  O   UNL     1       0.809  44.376  51.781  1.00  0.00    -0.201 OA
BRANCH   9  12
ATOM     12  C   UNL     1       0.138  43.982  54.359  1.00  0.00     0.095 A 
ATOM     13  C   UNL     1      -1.639  44.106  56.014  1.00  0.00     0.123 A 
ATOM     14  C   UNL     1      -0.822  44.927  56.815  1.00  0.00     0.092 A 
ATOM     15  C   UNL     1      -1.149  43.641  54.789  1.00  0.00     0.069 A 
ATOM     16  C   UNL     1       0.475  45.275  56.389  1.00  0.00     0.123 A 
ATOM     17  C   UNL     1       0.942  44.802  55.159  1.00  0.00     0.069 A 
BRANCH  13  18
ATOM     18  O   UNL     1      -2.934  43.728  56.398  1.00  0.00    -0.497 OA
ATOM     19  C   UNL     1      -3.237  42.946  57.548  1.00  0.00     0.278 C 
ENDBRANCH  13  18
BRANCH  16  20
ATOM     20  O   UNL     1       1.328  46.083  57.157  1.00  0.00    -0.497 OA
ATOM     21  C   UNL     1       0.930  46.795  58.323  1.00  0.00     0.278 C 
ENDBRANCH  16  20
ENDBRANCH   9  12
ENDBRANCH   7   9
ENDBRANCH   1   7
BRANCH   6  22
ATOM     22  O   UNL     1       3.202  41.806  50.568  1.00  0.00    -0.495 OA
ATOM     23  C   UNL     1       3.741  40.855  49.656  1.00  0.00     0.278 C 
ENDBRANCH   6  22
BRANCH   3  24
ATOM     24  S   UNL     1       6.341  45.997  53.455  1.00  0.00     0.241 S 
ATOM     25  O   UNL     1       5.862  47.340  52.981  1.00  0.00    -0.207 OA
ATOM     26  O   UNL     1       6.068  45.907  54.931  1.00  0.00    -0.207 OA
BRANCH  24  27
ATOM     27  N   UNL     1       8.061  45.892  53.155  1.00  0.00    -0.206 NA
ATOM     28  H   UNL     1       8.473  45.285  53.902  1.00  0.00     0.141 HD
BRANCH  27  29
ATOM     29  C   UNL     1       8.821  47.165  53.066  1.00  0.00     0.025 C 
ATOM     30  C   UNL     1      10.227  46.809  52.546  1.00  0.00     0.028 C 
ATOM     31  C   UNL     1       8.185  48.154  52.066  1.00  0.00     0.028 C 
ATOM     32  C   UNL     1       8.979  47.843  54.447  1.00  0.00     0.028 C 
ENDBRANCH  27  29
ENDBRANCH  24  27
ENDBRANCH   3  24
TORSDOF 9
ENDMDL
MODEL 2
REMARK VINA RESULT:    -8.384      0.380      2.181
REMARK INTER + INTRA:         -13.093
REMARK INTER:                 -12.800
REMARK INTRA:                  -0.294
REMARK UNBOUND:                -0.298
REMARK SMILES COc1cc(OC)cc(S(=O)(=O)Nc2cc(S(=O)(=O)NC(C)(C)C)ccc2OC)c1
REMARK SMILES IDX 14 1 15 2 16 3 25 4 26 5 27 6 13 7 10 9 11 10 12 11 9 12
REMARK SMILES IDX 3 13 4 14 30 15 5 16 8 17 2 18 1 19 6 20 7 21 28 22 29 23
REMARK SMILES IDX 17 24 18 25 19 26 20 27 21 29 22 30 23 31 24 32
REMARK H PARENT 13 8 20 28
ROOT
ATOM      1  C   UNL     1       3.500  43.548  52.700  1.00  0.00     0.092 A 
ATOM      2  C   UNL     1       4.289  44.463  53.420  1.00  0.00     0.052 A 
ATOM      3  C   UNL     1       5.441  45.017  52.854  1.00  0.00     0.084 A 
ATOM      4  C   UNL     1       5.803  44.676  51.547  1.00  0.00     0.026 A 
ATOM      5  C   UNL     1       5.016  43.789  50.810  1.00  0.00     0.050 A 
ATOM      6  C   UNL     1       3.861  43.215  51.378  1.00  0.00     0.143 A 
ENDROOT
BRANCH   1   7
ATOM      7  N   UNL     1       2.333  42.951  53.296  1.00  0.00    -0.276 N 
ATOM      8  H   UNL     1       2.442  42.162  53.971  1.00  0.00     0.180 HD
BRANCH   7   9
ATOM      9  S   UNL     1       0.734  43.605  53.114  1.00  0.00     0.262 S 
ATOM     10  O   UNL     1      -0.188  42.535  52.600  1.00  0.00    -0.201 OA
ATOM     11  O   UNL     1       0.775  44.734  52.123  1.00  0.00    -0.201 OA
BRANCH   9  12
ATOM     12  C   UNL     1       0.139  44.161  54.676  1.00  0.00     0.095 A 
ATOM     13  C   UNL     1       0.471  45.494  56.682  1.00  0.00     0.123 A 
ATOM     14  C   UNL     1      -0.828  45.158  57.109  1.00  0.00     0.092 A 
ATOM     15  C   UNL     1       0.943  44.990  55.466  1.00  0.00     0.069 A 
ATOM     16  C   UNL     1      -1.644  44.323  56.321  1.00  0.00     0.123 A 
ATOM     17  C   UNL     1      -1.149  43.828  55.110  1.00  0.00     0.069 A 
BRANCH  13  18
ATOM     18  O   UNL     1       1.318  46.326  57.429  1.00  0.00    -0.497 OA
ATOM     19  C   UNL     1       0.956  46.952  58.656  1.00  0.00     0.278 C 
ENDBRANCH  13  18
BRANCH  16  20
ATOM     20  O   UNL     1      -2.947  43.968  56.701  1.00  0.00    -0.497 OA
ATOM     21  C   UNL     1      -3.262  43.110  57.793  1.00  0.00     0.278 C 
ENDBRANCH  16  20
ENDBRANCH   9  12
ENDBRANCH   7   9
ENDBRANCH   1   7
BRANCH   6  22
ATOM     22  O   UNL     1       3.061  42.309  50.663  1.00  0.00    -0.495 OA
ATOM     23  C   UNL     1       3.544  41.130  50.027  1.00  0.00     0.278 C 
ENDBRANCH   6  22
BRANCH   3  24
ATOM     24  S   UNL     1       6.420  46.134  53.800  1.00  0.00     0.241 S 
ATOM     25  O   UNL     1       5.977  47.527  53.453  1.00  0.00    -0.207 OA
ATOM     26  O   UNL     1       6.181  45.929  55.270  1.00  0.00    -0.207 OA
BRANCH  24  27
ATOM     27  N   UNL     1       8.127  45.996  53.444  1.00  0.00    -0.206 NA
ATOM     28  H   UNL     1       8.562  45.429  54.208  1.00  0.00     0.141 HD
BRANCH  27  29
ATOM     29  C   UNL     1       8.891  47.255  53.254  1.00  0.00     0.025 C 
ATOM     30  C   UNL     1      10.258  46.861  52.661  1.00  0.00     0.028 C 
ATOM     31  C   UNL     1       8.202  48.210  52.257  1.00  0.00     0.028 C 
ATOM     32  C   UNL     1       9.143  47.986  54.593  1.00  0.00     0.028 C 
ENDBRANCH  27  29
ENDBRANCH  24  27
ENDBRANCH   3  24
TORSDOF 9
ENDMDL
MODEL 3
REMARK VINA RESULT:    -8.363      1.471      3.016
REMARK INTER + INTRA:         -13.062
REMARK INTER:                 -12.642
REMARK INTRA:                  -0.419
REMARK UNBOUND:                -0.298
REMARK SMILES COc1cc(OC)cc(S(=O)(=O)Nc2cc(S(=O)(=O)NC(C)(C)C)ccc2OC)c1
REMARK SMILES IDX 14 1 15 2 16 3 25 4 26 5 27 6 13 7 10 9 11 10 12 11 9 12
REMARK SMILES IDX 3 13 4 14 30 15 5 16 8 17 2 18 1 19 6 20 7 21 28 22 29 23
REMARK SMILES IDX 17 24 18 25 19 26 20 27 21 29 22 30 23 31 24 32
REMARK H PARENT 13 8 20 28
ROOT
ATOM      1  C   UNL     1       4.074  42.611  51.384  1.00  0.00     0.092 A 
ATOM      2  C   UNL     1       4.679  43.851  51.655  1.00  0.00     0.052 A 
ATOM      3  C   UNL     1       5.845  44.240  50.991  1.00  0.00     0.084 A 
ATOM      4  C   UNL     1       6.408  43.396  50.028  1.00  0.00     0.026 A 
ATOM      5  C   UNL     1       5.805  42.174  49.729  1.00  0.00     0.050 A 
ATOM      6  C   UNL     1       4.636  41.767  50.404  1.00  0.00     0.143 A 
ENDROOT
BRANCH   1   7
ATOM      7  N   UNL     1       2.891  42.195  52.093  1.00  0.00    -0.276 N 
ATOM      8  H   UNL     1       2.920  41.341  52.694  1.00  0.00     0.180 HD
BRANCH   7   9
ATOM      9  S   UNL     1       1.447  43.156  52.176  1.00  0.00     0.262 S 
ATOM     10  O   UNL     1       0.244  42.261  52.074  1.00  0.00    -0.201 OA
ATOM     11  O   UNL     1       1.435  44.125  51.028  1.00  0.00    -0.201 OA
BRANCH   9  12
ATOM     12  C   UNL     1       1.388  44.008  53.718  1.00  0.00     0.095 A 
ATOM     13  C   UNL     1       2.473  45.445  55.351  1.00  0.00     0.123 A 
ATOM     14  C   UNL     1       1.284  45.469  56.106  1.00  0.00     0.092 A 
ATOM     15  C   UNL     1       2.513  44.712  54.161  1.00  0.00     0.069 A 
ATOM     16  C   UNL     1       0.147  44.762  55.668  1.00  0.00     0.123 A 
ATOM     17  C   UNL     1       0.212  44.032  54.476  1.00  0.00     0.069 A 
BRANCH  13  18
ATOM     18  O   UNL     1       3.628  46.137  55.744  1.00  0.00    -0.497 OA
ATOM     19  C   UNL     1       4.867  46.099  55.043  1.00  0.00     0.278 C 
ENDBRANCH  13  18
BRANCH  16  20
ATOM     20  O   UNL     1      -1.061  44.762  56.381  1.00  0.00    -0.497 OA
ATOM     21  C   UNL     1      -2.207  43.996  56.026  1.00  0.00     0.278 C 
ENDBRANCH  16  20
ENDBRANCH   9  12
ENDBRANCH   7   9
ENDBRANCH   1   7
BRANCH   6  22
ATOM     22  O   UNL     1       4.019  40.535  50.132  1.00  0.00    -0.495 OA
ATOM     23  C   UNL     1       3.563  40.123  48.848  1.00  0.00     0.278 C 
ENDBRANCH   6  22
BRANCH   3  24
ATOM     24  S   UNL     1       6.590  45.787  51.383  1.00  0.00     0.241 S 
ATOM     25  O   UNL     1       7.341  46.247  50.166  1.00  0.00    -0.207 OA
ATOM     26  O   UNL     1       5.538  46.816  51.690  1.00  0.00    -0.207 OA
BRANCH  24  27
ATOM     27  N   UNL     1       7.721  45.669  52.712  1.00  0.00    -0.206 NA
ATOM     28  H   UNL     1       7.163  45.633  53.596  1.00  0.00     0.141 HD
BRANCH  27  29
ATOM     29  C   UNL     1       8.766  46.718  52.819  1.00  0.00     0.025 C 
ATOM     30  C   UNL     1       9.111  46.853  54.315  1.00  0.00     0.028 C 
ATOM     31  C   UNL     1      10.059  46.332  52.070  1.00  0.00     0.028 C 
ATOM     32  C   UNL     1       8.260  48.092  52.319  1.00  0.00     0.028 C 
ENDBRANCH  27  29
ENDBRANCH  24  27
ENDBRANCH   3  24
TORSDOF 9
ENDMDL
MODEL 4
REMARK VINA RESULT:    -8.350      1.448      2.097
REMARK INTER + INTRA:         -13.041
REMARK INTER:                 -12.748
REMARK INTRA:                  -0.293
REMARK UNBOUND:                -0.298
REMARK SMILES COc1cc(OC)cc(S(=O)(=O)Nc2cc(S(=O)(=O)NC(C)(C)C)ccc2OC)c1
REMARK SMILES IDX 14 1 15 2 16 3 25 4 26 5 27 6 13 7 10 9 11 10 12 11 9 12
REMARK SMILES IDX 3 13 4 14 30 15 5 16 8 17 2 18 1 19 6 20 7 21 28 22 29 23
REMARK SMILES IDX 17 24 18 25 19 26 20 27 21 29 22 30 23 31 24 32
REMARK H PARENT 13 8 20 28
ROOT
ATOM      1  C   UNL     1       4.031  42.669  51.445  1.00  0.00     0.092 A 
ATOM      2  C   UNL     1       4.621  43.910  51.740  1.00  0.00     0.052 A 
ATOM      3  C   UNL     1       5.788  44.323  51.091  1.00  0.00     0.084 A 
ATOM      4  C   UNL     1       6.367  43.501  50.119  1.00  0.00     0.026 A 
ATOM      5  C   UNL     1       5.779  42.277  49.795  1.00  0.00     0.050 A 
ATOM      6  C   UNL     1       4.610  41.848  50.454  1.00  0.00     0.143 A 
ENDROOT
BRANCH   1   7
ATOM      7  N   UNL     1       2.848  42.229  52.138  1.00  0.00    -0.276 N 
ATOM      8  H   UNL     1       2.880  41.363  52.720  1.00  0.00     0.180 HD
BRANCH   7   9
ATOM      9  S   UNL     1       1.395  43.176  52.232  1.00  0.00     0.262 S 
ATOM     10  O   UNL     1       0.204  42.262  52.288  1.00  0.00    -0.201 OA
ATOM     11  O   UNL     1       1.292  44.041  51.007  1.00  0.00    -0.201 OA
BRANCH   9  12
ATOM     12  C   UNL     1       1.422  44.160  53.694  1.00  0.00     0.095 A 
ATOM     13  C   UNL     1       0.253  45.055  55.629  1.00  0.00     0.123 A 
ATOM     14  C   UNL     1       1.460  45.619  56.085  1.00  0.00     0.092 A 
ATOM     15  C   UNL     1       0.246  44.329  54.434  1.00  0.00     0.069 A 
ATOM     16  C   UNL     1       2.648  45.455  55.346  1.00  0.00     0.123 A 
ATOM     17  C   UNL     1       2.616  44.728  54.151  1.00  0.00     0.069 A 
BRANCH  13  18
ATOM     18  O   UNL     1      -0.953  45.186  56.333  1.00  0.00    -0.497 OA
ATOM     19  C   UNL     1      -1.798  44.099  56.695  1.00  0.00     0.278 C 
ENDBRANCH  13  18
BRANCH  16  20
ATOM     20  O   UNL     1       3.875  45.992  55.764  1.00  0.00    -0.497 OA
ATOM     21  C   UNL     1       5.149  45.472  55.397  1.00  0.00     0.278 C 
ENDBRANCH  16  20
ENDBRANCH   9  12
ENDBRANCH   7   9
ENDBRANCH   1   7
BRANCH   6  22
ATOM     22  O   UNL     1       4.008  40.613  50.158  1.00  0.00    -0.495 OA
ATOM     23  C   UNL     1       3.556  40.222  48.866  1.00  0.00     0.278 C 
ENDBRANCH   6  22
BRANCH   3  24
ATOM     24  S   UNL     1       6.513  45.870  51.514  1.00  0.00     0.241 S 
ATOM     25  O   UNL     1       7.167  46.416  50.276  1.00  0.00    -0.207 OA
ATOM     26  O   UNL     1       5.456  46.849  51.942  1.00  0.00    -0.207 OA
BRANCH  24  27
ATOM     27  N   UNL     1       7.734  45.722  52.758  1.00  0.00    -0.206 NA
ATOM     28  H   UNL     1       7.242  45.728  53.682  1.00  0.00     0.141 HD
BRANCH  27  29
ATOM     29  C   UNL     1       8.831  46.722  52.765  1.00  0.00     0.025 C 
ATOM     30  C   UNL     1       9.302  46.856  54.227  1.00  0.00     0.028 C 
ATOM     31  C   UNL     1      10.040  46.266  51.921  1.00  0.00     0.028 C 
ATOM     32  C   UNL     1       8.351  48.112  52.288  1.00  0.00     0.028 C 
ENDBRANCH  27  29
ENDBRANCH  24  27
ENDBRANCH   3  24
TORSDOF 9
ENDMDL
MODEL 5
REMARK VINA RESULT:    -8.204      2.317      8.236
REMARK INTER + INTRA:         -12.818
REMARK INTER:                 -12.319
REMARK INTRA:                  -0.499
REMARK UNBOUND:                -0.298
REMARK SMILES COc1cc(OC)cc(S(=O)(=O)Nc2cc(S(=O)(=O)NC(C)(C)C)ccc2OC)c1
REMARK SMILES IDX 14 1 15 2 16 3 25 4 26 5 27 6 13 7 10 9 11 10 12 11 9 12
REMARK SMILES IDX 3 13 4 14 30 15 5 16 8 17 2 18 1 19 6 20 7 21 28 22 29 23
REMARK SMILES IDX 17 24 18 25 19 26 20 27 21 29 22 30 23 31 24 32
REMARK H PARENT 13 8 20 28
ROOT
ATOM      1  C   UNL     1       2.799  45.091  52.808  1.00  0.00     0.092 A 
ATOM      2  C   UNL     1       1.492  45.221  53.309  1.00  0.00     0.052 A 
ATOM      3  C   UNL     1       0.678  44.100  53.493  1.00  0.00     0.084 A 
ATOM      4  C   UNL     1       1.176  42.827  53.195  1.00  0.00     0.026 A 
ATOM      5  C   UNL     1       2.480  42.678  52.721  1.00  0.00     0.050 A 
ATOM      6  C   UNL     1       3.303  43.805  52.520  1.00  0.00     0.143 A 
ENDROOT
BRANCH   1   7
ATOM      7  N   UNL     1       3.624  46.250  52.587  1.00  0.00    -0.276 N 
ATOM      8  H   UNL     1       3.411  46.894  51.793  1.00  0.00     0.180 HD
BRANCH   7   9
ATOM      9  S   UNL     1       4.854  46.766  53.699  1.00  0.00     0.262 S 
ATOM     10  O   UNL     1       4.818  45.898  54.925  1.00  0.00    -0.201 OA
ATOM     11  O   UNL     1       4.587  48.190  54.100  1.00  0.00    -0.201 OA
BRANCH   9  12
ATOM     12  C   UNL     1       6.439  46.613  52.944  1.00  0.00     0.095 A 
ATOM     13  C   UNL     1       7.782  45.983  51.018  1.00  0.00     0.123 A 
ATOM     14  C   UNL     1       8.931  46.467  51.672  1.00  0.00     0.092 A 
ATOM     15  C   UNL     1       6.543  46.060  51.663  1.00  0.00     0.069 A 
ATOM     16  C   UNL     1       8.835  47.024  52.963  1.00  0.00     0.123 A 
ATOM     17  C   UNL     1       7.586  47.088  53.590  1.00  0.00     0.069 A 
BRANCH  13  18
ATOM     18  O   UNL     1       7.826  45.425  49.732  1.00  0.00    -0.497 OA
ATOM     19  C   UNL     1       8.471  44.197  49.408  1.00  0.00     0.278 C 
ENDBRANCH  13  18
BRANCH  16  20
ATOM     20  O   UNL     1       9.950  47.527  53.651  1.00  0.00    -0.497 OA
ATOM     21  C   UNL     1      10.218  47.294  55.029  1.00  0.00     0.278 C 
ENDBRANCH  16  20
ENDBRANCH   9  12
ENDBRANCH   7   9
ENDBRANCH   1   7
BRANCH   6  22
ATOM     22  O   UNL     1       4.613  43.683  52.030  1.00  0.00    -0.495 OA
ATOM     23  C   UNL     1       4.977  42.944  50.868  1.00  0.00     0.278 C 
ENDBRANCH   6  22
BRANCH   3  24
ATOM     24  S   UNL     1      -0.964  44.309  54.092  1.00  0.00     0.241 S 
ATOM     25  O   UNL     1      -1.853  44.537  52.902  1.00  0.00    -0.207 OA
ATOM     26  O   UNL     1      -1.436  43.062  54.785  1.00  0.00    -0.207 OA
BRANCH  24  27
ATOM     27  N   UNL     1      -1.118  45.685  55.161  1.00  0.00    -0.206 NA
ATOM     28  H   UNL     1      -0.477  46.432  54.805  1.00  0.00     0.141 HD
BRANCH  27  29
ATOM     29  C   UNL     1      -0.873  45.460  56.608  1.00  0.00     0.025 C 
ATOM     30  C   UNL     1      -1.040  46.824  57.306  1.00  0.00     0.028 C 
ATOM     31  C   UNL     1      -1.897  44.486  57.228  1.00  0.00     0.028 C 
ATOM     32  C   UNL     1       0.563  44.955  56.881  1.00  0.00     0.028 C 
ENDBRANCH  27  29
ENDBRANCH  24  27
ENDBRANCH   3  24
TORSDOF 9
ENDMDL
