ligand_43_conformer_1_docked
     RDKit          3D

 55 58  0  0  0  0  0  0  0  0999 V2000
    7.0330   42.7830   49.4140 C   0  0  0  0  0  0  0  0  0  0  0  0
    6.4550   41.4430   49.8580 C   0  0  0  0  0  0  0  0  0  0  0  0
    4.9820   41.5540   50.0950 C   0  0  0  0  0  0  0  0  0  0  0  0
    4.0610   40.8270   49.4330 N   0  0  0  0  0  0  0  0  0  0  0  0
    2.9200   41.2180   49.9160 O   0  0  0  0  0  0  0  0  0  0  0  0
    3.1180   42.1430   50.8250 C   0  0  0  0  0  0  0  0  0  0  0  0
    2.0380   42.8160   51.5750 C   0  0  0  0  0  0  0  0  0  0  0  0
    0.8120   43.0840   50.9580 C   0  0  0  0  0  0  0  0  0  0  0  0
   -0.2120   43.7120   51.6690 C   0  0  0  0  0  0  0  0  0  0  0  0
   -0.0330   44.0760   53.0140 C   0  0  0  0  0  0  0  0  0  0  0  0
   -1.1720   44.7260   53.7520 C   0  0  0  0  0  0  0  0  0  0  0  0
    1.2090   43.8230   53.6480 C   0  0  0  0  0  0  0  0  0  0  0  0
    1.4230   44.2000   55.0250 N   0  0  0  0  0  0  0  0  0  0  0  0
    2.1830   45.3810   55.4440 C   0  0  0  0  0  0  0  0  0  0  0  0
    3.3890   45.5800   54.5640 C   0  0  0  0  0  0  0  0  0  0  0  0
    4.5240   44.7740   54.7320 C   0  0  0  0  0  0  0  0  0  0  0  0
    5.6230   44.9130   53.8790 C   0  0  0  0  0  0  0  0  0  0  0  0
    5.5950   45.8560   52.8410 C   0  0  0  0  0  0  0  0  0  0  0  0
    6.7470   45.9870   51.9320 C   0  0  0  0  0  0  0  0  0  0  0  0
    6.5470   45.9540   50.6870 O   0  0  0  0  0  0  0  0  0  0  0  0
    8.0820   46.1830   52.4360 N   0  0  0  0  0  0  0  0  0  0  0  0
    9.2590   46.1150   51.5870 C   0  0  0  0  0  0  0  0  0  0  0  0
   10.3820   46.7700   52.3790 C   0  0  0  0  0  0  0  0  0  0  0  0
    9.8920   46.8490   53.8240 C   0  0  0  0  0  0  0  0  0  0  0  0
    8.3780   46.7050   53.7630 C   0  0  0  0  0  0  0  0  0  0  0  0
    4.4760   46.6910   52.6960 C   0  0  0  0  0  0  0  0  0  0  0  0
    3.3800   46.5550   53.5520 C   0  0  0  0  0  0  0  0  0  0  0  0
    2.2340   43.1990   52.9110 C   0  0  0  0  0  0  0  0  0  0  0  0
    4.4300   42.4040   50.9860 N   0  0  0  0  0  0  0  0  0  0  0  0
    7.2915   43.3823   50.2995 H   0  0  0  0  0  0  0  0  0  0  0  0
    7.9369   42.6108   48.8112 H   0  0  0  0  0  0  0  0  0  0  0  0
    6.2875   43.3222   48.8112 H   0  0  0  0  0  0  0  0  0  0  0  0
    6.6390   40.6931   49.0745 H   0  0  0  0  0  0  0  0  0  0  0  0
    6.9422   41.1418   50.7971 H   0  0  0  0  0  0  0  0  0  0  0  0
    0.6538   42.7986   49.9075 H   0  0  0  0  0  0  0  0  0  0  0  0
   -1.1695   43.9242   51.1708 H   0  0  0  0  0  0  0  0  0  0  0  0
   -1.0078   44.6323   54.8356 H   0  0  0  0  0  0  0  0  0  0  0  0
   -1.2252   45.7905   53.4799 H   0  0  0  0  0  0  0  0  0  0  0  0
   -2.1156   44.2304   53.4799 H   0  0  0  0  0  0  0  0  0  0  0  0
    1.0790   43.5770   55.7890 H   0  0  0  0  0  0  0  0  0  0  0  0
    1.5367   46.2686   55.3764 H   0  0  0  0  0  0  0  0  0  0  0  0
    2.5225   45.2329   56.4798 H   0  0  0  0  0  0  0  0  0  0  0  0
    4.5499   44.0278   55.5398 H   0  0  0  0  0  0  0  0  0  0  0  0
    6.5120   44.2812   54.0223 H   0  0  0  0  0  0  0  0  0  0  0  0
    9.5092   45.0676   51.3627 H   0  0  0  0  0  0  0  0  0  0  0  0
    9.0935   46.6224   50.6251 H   0  0  0  0  0  0  0  0  0  0  0  0
   11.2966   46.1618   52.3188 H   0  0  0  0  0  0  0  0  0  0  0  0
   10.6249   47.7668   51.9822 H   0  0  0  0  0  0  0  0  0  0  0  0
   10.3295   46.0351   54.4208 H   0  0  0  0  0  0  0  0  0  0  0  0
   10.1875   47.7966   54.2980 H   0  0  0  0  0  0  0  0  0  0  0  0
    8.0283   46.0054   54.5365 H   0  0  0  0  0  0  0  0  0  0  0  0
    7.8725   47.6654   53.9422 H   0  0  0  0  0  0  0  0  0  0  0  0
    4.4619   47.4555   51.9053 H   0  0  0  0  0  0  0  0  0  0  0  0
    2.5069   47.2135   53.4333 H   0  0  0  0  0  0  0  0  0  0  0  0
    3.2053   43.0084   53.3908 H   0  0  0  0  0  0  0  0  0  0  0  0
  1  2  1  0
  2  3  1  0
  3  4  2  0
  4  5  1  0
  5  6  1  0
  6  7  1  0
  7  8  2  0
  8  9  1  0
  9 10  2  0
 10 11  1  0
 10 12  1  0
 12 13  1  0
 13 14  1  0
 14 15  1  0
 15 16  2  0
 16 17  1  0
 17 18  2  0
 18 19  1  0
 19 20  2  0
 19 21  1  0
 21 22  1  0
 22 23  1  0
 23 24  1  0
 24 25  1  0
 18 26  1  0
 26 27  2  0
 12 28  2  0
  6 29  2  0
 29  3  1  0
 28  7  1  0
 27 15  1  0
 25 21  1  0
  1 30  1  0
  1 31  1  0
  1 32  1  0
  2 33  1  0
  2 34  1  0
  8 35  1  0
  9 36  1  0
 11 37  1  0
 11 38  1  0
 11 39  1  0
 13 40  1  0
 14 41  1  0
 14 42  1  0
 16 43  1  0
 17 44  1  0
 22 45  1  0
 22 46  1  0
 23 47  1  0
 23 48  1  0
 24 49  1  0
 24 50  1  0
 25 51  1  0
 25 52  1  0
 26 53  1  0
 27 54  1  0
 28 55  1  0
M  END
>  <meeko>  (1) 
{"is_sidechain": [false], "free_energy": -9.675, "intermolecular_energy": -13.069, "internal_energy": -0.936}

$$$$
ligand_43_conformer_1_docked
     RDKit          3D

 55 58  0  0  0  0  0  0  0  0999 V2000
   -0.2060   48.5270   60.7790 C   0  0  0  0  0  0  0  0  0  0  0  0
   -0.9110   48.5260   59.4260 C   0  0  0  0  0  0  0  0  0  0  0  0
   -0.3920   47.4240   58.5580 C   0  0  0  0  0  0  0  0  0  0  0  0
    0.8040   46.8300   58.7370 N   0  0  0  0  0  0  0  0  0  0  0  0
    0.8810   45.9460   57.7880 O   0  0  0  0  0  0  0  0  0  0  0  0
   -0.2050   45.9900   57.0530 C   0  0  0  0  0  0  0  0  0  0  0  0
   -0.4520   45.1260   55.8820 C   0  0  0  0  0  0  0  0  0  0  0  0
   -1.7310   44.6130   55.6400 C   0  0  0  0  0  0  0  0  0  0  0  0
   -1.9670   43.8040   54.5290 C   0  0  0  0  0  0  0  0  0  0  0  0
   -0.9310   43.4980   53.6300 C   0  0  0  0  0  0  0  0  0  0  0  0
   -1.2340   42.6450   52.4290 C   0  0  0  0  0  0  0  0  0  0  0  0
    0.3730   43.9990   53.8700 C   0  0  0  0  0  0  0  0  0  0  0  0
    1.4590   43.6880   52.9700 N   0  0  0  0  0  0  0  0  0  0  0  0
    1.6610   44.3370   51.6720 C   0  0  0  0  0  0  0  0  0  0  0  0
    3.1200   44.6430   51.4500 C   0  0  0  0  0  0  0  0  0  0  0  0
    3.5130   45.9150   51.0090 C   0  0  0  0  0  0  0  0  0  0  0  0
    4.8680   46.2240   50.8590 C   0  0  0  0  0  0  0  0  0  0  0  0
    5.8470   45.2640   51.1570 C   0  0  0  0  0  0  0  0  0  0  0  0
    7.2750   45.5990   51.0170 C   0  0  0  0  0  0  0  0  0  0  0  0
    7.8220   45.4740   49.8880 O   0  0  0  0  0  0  0  0  0  0  0  0
    8.0420   46.0960   52.1310 N   0  0  0  0  0  0  0  0  0  0  0  0
    9.4860   46.2440   52.0840 C   0  0  0  0  0  0  0  0  0  0  0  0
    9.8490   47.1550   53.2490 C   0  0  0  0  0  0  0  0  0  0  0  0
    8.6230   47.1870   54.1590 C   0  0  0  0  0  0  0  0  0  0  0  0
    7.4520   46.7220   53.3050 C   0  0  0  0  0  0  0  0  0  0  0  0
    5.4550   43.9790   51.5600 C   0  0  0  0  0  0  0  0  0  0  0  0
    4.1000   43.6680   51.7050 C   0  0  0  0  0  0  0  0  0  0  0  0
    0.5950   44.8040   55.0030 C   0  0  0  0  0  0  0  0  0  0  0  0
   -1.0660   46.9260   57.5010 N   0  0  0  0  0  0  0  0  0  0  0  0
   -0.9563   48.5259   61.5834 H   0  0  0  0  0  0  0  0  0  0  0  0
    0.4246   47.6297   60.8646 H   0  0  0  0  0  0  0  0  0  0  0  0
    0.4220   49.4260   60.8646 H   0  0  0  0  0  0  0  0  0  0  0  0
   -1.9906   48.3843   59.5819 H   0  0  0  0  0  0  0  0  0  0  0  0
   -0.7193   49.4877   58.9276 H   0  0  0  0  0  0  0  0  0  0  0  0
   -2.5547   44.8491   56.3298 H   0  0  0  0  0  0  0  0  0  0  0  0
   -2.9754   43.4008   54.3543 H   0  0  0  0  0  0  0  0  0  0  0  0
   -1.5851   41.6566   52.7604 H   0  0  0  0  0  0  0  0  0  0  0  0
   -2.0156   43.1279   51.8241 H   0  0  0  0  0  0  0  0  0  0  0  0
   -0.3229   42.5266   51.8241 H   0  0  0  0  0  0  0  0  0  0  0  0
    2.1190   42.9140   53.2090 H   0  0  0  0  0  0  0  0  0  0  0  0
    1.3073   43.6670   50.8745 H   0  0  0  0  0  0  0  0  0  0  0  0
    1.0958   45.2805   51.6569 H   0  0  0  0  0  0  0  0  0  0  0  0
    2.7505   46.6740   50.7798 H   0  0  0  0  0  0  0  0  0  0  0  0
    5.1675   47.2220   50.5065 H   0  0  0  0  0  0  0  0  0  0  0  0
    9.9750   45.2651   52.1966 H   0  0  0  0  0  0  0  0  0  0  0  0
    9.8184   46.6642   51.1233 H   0  0  0  0  0  0  0  0  0  0  0  0
   10.7171   46.7530   53.7919 H   0  0  0  0  0  0  0  0  0  0  0  0
   10.1185   48.1634   52.9020 H   0  0  0  0  0  0  0  0  0  0  0  0
    8.7645   46.5099   55.0143 H   0  0  0  0  0  0  0  0  0  0  0  0
    8.4496   48.1946   54.5648 H   0  0  0  0  0  0  0  0  0  0  0  0
    6.8384   45.9961   53.8587 H   0  0  0  0  0  0  0  0  0  0  0  0
    6.7937   47.5592   53.0299 H   0  0  0  0  0  0  0  0  0  0  0  0
    6.2174   43.2125   51.7629 H   0  0  0  0  0  0  0  0  0  0  0  0
    3.7997   42.6576   52.0195 H   0  0  0  0  0  0  0  0  0  0  0  0
    1.6062   45.1877   55.2035 H   0  0  0  0  0  0  0  0  0  0  0  0
  1  2  1  0
  2  3  1  0
  3  4  2  0
  4  5  1  0
  5  6  1  0
  6  7  1  0
  7  8  2  0
  8  9  1  0
  9 10  2  0
 10 11  1  0
 10 12  1  0
 12 13  1  0
 13 14  1  0
 14 15  1  0
 15 16  2  0
 16 17  1  0
 17 18  2  0
 18 19  1  0
 19 20  2  0
 19 21  1  0
 21 22  1  0
 22 23  1  0
 23 24  1  0
 24 25  1  0
 18 26  1  0
 26 27  2  0
 12 28  2  0
  6 29  2  0
 29  3  1  0
 28  7  1  0
 27 15  1  0
 25 21  1  0
  1 30  1  0
  1 31  1  0
  1 32  1  0
  2 33  1  0
  2 34  1  0
  8 35  1  0
  9 36  1  0
 11 37  1  0
 11 38  1  0
 11 39  1  0
 13 40  1  0
 14 41  1  0
 14 42  1  0
 16 43  1  0
 17 44  1  0
 22 45  1  0
 22 46  1  0
 23 47  1  0
 23 48  1  0
 24 49  1  0
 24 50  1  0
 25 51  1  0
 25 52  1  0
 26 53  1  0
 27 54  1  0
 28 55  1  0
M  END
>  <meeko>  (2) 
{"is_sidechain": [false], "free_energy": -8.956, "intermolecular_energy": -12.406, "internal_energy": -0.626}

$$$$
ligand_43_conformer_1_docked
     RDKit          3D

 55 58  0  0  0  0  0  0  0  0999 V2000
    5.7410   41.4910   49.3890 C   0  0  0  0  0  0  0  0  0  0  0  0
    6.2630   42.5310   48.4030 C   0  0  0  0  0  0  0  0  0  0  0  0
    7.2140   43.4700   49.0760 C   0  0  0  0  0  0  0  0  0  0  0  0
    8.4260   43.7870   48.5840 N   0  0  0  0  0  0  0  0  0  0  0  0
    8.9330   44.6080   49.4530 O   0  0  0  0  0  0  0  0  0  0  0  0
    8.0860   44.7890   50.4380 C   0  0  0  0  0  0  0  0  0  0  0  0
    8.3400   45.6580   51.6050 C   0  0  0  0  0  0  0  0  0  0  0  0
    9.5600   46.3300   51.7310 C   0  0  0  0  0  0  0  0  0  0  0  0
    9.7970   47.1580   52.8290 C   0  0  0  0  0  0  0  0  0  0  0  0
    8.8160   47.3380   53.8180 C   0  0  0  0  0  0  0  0  0  0  0  0
    9.1020   48.2620   54.9710 C   0  0  0  0  0  0  0  0  0  0  0  0
    7.5800   46.6520   53.7100 C   0  0  0  0  0  0  0  0  0  0  0  0
    6.5600   46.8090   54.7200 N   0  0  0  0  0  0  0  0  0  0  0  0
    5.3040   47.5350   54.5130 C   0  0  0  0  0  0  0  0  0  0  0  0
    4.3050   46.6750   53.7820 C   0  0  0  0  0  0  0  0  0  0  0  0
    3.7040   47.1420   52.6040 C   0  0  0  0  0  0  0  0  0  0  0  0
    2.8220   46.3260   51.8890 C   0  0  0  0  0  0  0  0  0  0  0  0
    2.5390   45.0280   52.3410 C   0  0  0  0  0  0  0  0  0  0  0  0
    1.6250   44.1640   51.5740 C   0  0  0  0  0  0  0  0  0  0  0  0
    2.1100   43.2420   50.8630 O   0  0  0  0  0  0  0  0  0  0  0  0
    0.1960   44.3310   51.6490 N   0  0  0  0  0  0  0  0  0  0  0  0
   -0.7220   43.6370   50.7610 C   0  0  0  0  0  0  0  0  0  0  0  0
   -2.0940   43.7480   51.4130 C   0  0  0  0  0  0  0  0  0  0  0  0
   -1.9730   44.8440   52.4700 C   0  0  0  0  0  0  0  0  0  0  0  0
   -0.4850   44.9970   52.7500 C   0  0  0  0  0  0  0  0  0  0  0  0
    3.1090   44.5740   53.5400 C   0  0  0  0  0  0  0  0  0  0  0  0
    3.9860   45.3920   54.2570 C   0  0  0  0  0  0  0  0  0  0  0  0
    7.3630   45.8120   52.6010 C   0  0  0  0  0  0  0  0  0  0  0  0
    6.9550   44.0790   50.2520 N   0  0  0  0  0  0  0  0  0  0  0  0
    5.9163   41.8402   50.4173 H   0  0  0  0  0  0  0  0  0  0  0  0
    4.6624   41.3443   49.2304 H   0  0  0  0  0  0  0  0  0  0  0  0
    6.2678   40.5385   49.2304 H   0  0  0  0  0  0  0  0  0  0  0  0
    6.7833   42.0188   47.5802 H   0  0  0  0  0  0  0  0  0  0  0  0
    5.4110   43.1091   48.0158 H   0  0  0  0  0  0  0  0  0  0  0  0
   10.3360   46.2054   50.9614 H   0  0  0  0  0  0  0  0  0  0  0  0
   10.7632   47.6757   52.9210 H   0  0  0  0  0  0  0  0  0  0  0  0
    8.9367   47.7281   55.9184 H   0  0  0  0  0  0  0  0  0  0  0  0
   10.1471   48.6011   54.9186 H   0  0  0  0  0  0  0  0  0  0  0  0
    8.4312   49.1322   54.9186 H   0  0  0  0  0  0  0  0  0  0  0  0
    6.7300   46.4440   55.6840 H   0  0  0  0  0  0  0  0  0  0  0  0
    4.8873   47.8213   55.4899 H   0  0  0  0  0  0  0  0  0  0  0  0
    5.5090   48.4305   53.9079 H   0  0  0  0  0  0  0  0  0  0  0  0
    3.9277   48.1558   52.2406 H   0  0  0  0  0  0  0  0  0  0  0  0
    2.3489   46.7024   50.9701 H   0  0  0  0  0  0  0  0  0  0  0  0
   -0.7295   44.1133   49.7695 H   0  0  0  0  0  0  0  0  0  0  0  0
   -0.4274   42.5874   50.6141 H   0  0  0  0  0  0  0  0  0  0  0  0
   -2.8516   44.0219   50.6640 H   0  0  0  0  0  0  0  0  0  0  0  0
   -2.4056   42.7920   51.8591 H   0  0  0  0  0  0  0  0  0  0  0  0
   -2.3892   45.7887   52.0900 H   0  0  0  0  0  0  0  0  0  0  0  0
   -2.5295   44.5854   53.3829 H   0  0  0  0  0  0  0  0  0  0  0  0
   -0.2089   46.0613   52.7836 H   0  0  0  0  0  0  0  0  0  0  0  0
   -0.2086   44.5600   53.7209 H   0  0  0  0  0  0  0  0  0  0  0  0
    2.8645   43.5700   53.9171 H   0  0  0  0  0  0  0  0  0  0  0  0
    4.4283   45.0300   55.1969 H   0  0  0  0  0  0  0  0  0  0  0  0
    6.4115   45.2671   52.5136 H   0  0  0  0  0  0  0  0  0  0  0  0
  1  2  1  0
  2  3  1  0
  3  4  2  0
  4  5  1  0
  5  6  1  0
  6  7  1  0
  7  8  2  0
  8  9  1  0
  9 10  2  0
 10 11  1  0
 10 12  1  0
 12 13  1  0
 13 14  1  0
 14 15  1  0
 15 16  2  0
 16 17  1  0
 17 18  2  0
 18 19  1  0
 19 20  2  0
 19 21  1  0
 21 22  1  0
 22 23  1  0
 23 24  1  0
 24 25  1  0
 18 26  1  0
 26 27  2  0
 12 28  2  0
  6 29  2  0
 29  3  1  0
 28  7  1  0
 27 15  1  0
 25 21  1  0
  1 30  1  0
  1 31  1  0
  1 32  1  0
  2 33  1  0
  2 34  1  0
  8 35  1  0
  9 36  1  0
 11 37  1  0
 11 38  1  0
 11 39  1  0
 13 40  1  0
 14 41  1  0
 14 42  1  0
 16 43  1  0
 17 44  1  0
 22 45  1  0
 22 46  1  0
 23 47  1  0
 23 48  1  0
 24 49  1  0
 24 50  1  0
 25 51  1  0
 25 52  1  0
 26 53  1  0
 27 54  1  0
 28 55  1  0
M  END
>  <meeko>  (3) 
{"is_sidechain": [false], "free_energy": -8.943, "intermolecular_energy": -11.815, "internal_energy": -1.201}

$$$$
ligand_43_conformer_1_docked
     RDKit          3D

 55 58  0  0  0  0  0  0  0  0999 V2000
    3.4900   40.0270   48.3640 C   0  0  0  0  0  0  0  0  0  0  0  0
    3.6300   40.7340   49.7090 C   0  0  0  0  0  0  0  0  0  0  0  0
    4.7530   41.7210   49.6750 C   0  0  0  0  0  0  0  0  0  0  0  0
    5.7770   41.6600   48.8020 N   0  0  0  0  0  0  0  0  0  0  0  0
    6.5300   42.6750   49.1030 O   0  0  0  0  0  0  0  0  0  0  0  0
    6.0080   43.3310   50.1120 C   0  0  0  0  0  0  0  0  0  0  0  0
    6.6060   44.5370   50.7190 C   0  0  0  0  0  0  0  0  0  0  0  0
    7.7310   45.1340   50.1400 C   0  0  0  0  0  0  0  0  0  0  0  0
    8.2910   46.2780   50.7080 C   0  0  0  0  0  0  0  0  0  0  0  0
    7.7320   46.8550   51.8600 C   0  0  0  0  0  0  0  0  0  0  0  0
    8.3500   48.1060   52.4240 C   0  0  0  0  0  0  0  0  0  0  0  0
    6.6000   46.2540   52.4650 C   0  0  0  0  0  0  0  0  0  0  0  0
    6.0150   46.8180   53.6580 N   0  0  0  0  0  0  0  0  0  0  0  0
    4.7910   47.6240   53.6700 C   0  0  0  0  0  0  0  0  0  0  0  0
    3.5820   46.7550   53.8990 C   0  0  0  0  0  0  0  0  0  0  0  0
    2.5920   46.6520   52.9100 C   0  0  0  0  0  0  0  0  0  0  0  0
    1.4990   45.8000   53.0910 C   0  0  0  0  0  0  0  0  0  0  0  0
    1.3870   45.0340   54.2610 C   0  0  0  0  0  0  0  0  0  0  0  0
    0.2420   44.1230   54.4390 C   0  0  0  0  0  0  0  0  0  0  0  0
    0.2420   43.0190   53.8290 O   0  0  0  0  0  0  0  0  0  0  0  0
   -0.8500   44.4550   55.3180 N   0  0  0  0  0  0  0  0  0  0  0  0
   -2.0800   43.6820   55.3650 C   0  0  0  0  0  0  0  0  0  0  0  0
   -2.7720   44.0830   56.6610 C   0  0  0  0  0  0  0  0  0  0  0  0
   -2.0900   45.3680   57.1260 C   0  0  0  0  0  0  0  0  0  0  0  0
   -0.7520   45.4200   56.4040 C   0  0  0  0  0  0  0  0  0  0  0  0
    2.3540   45.1660   55.2680 C   0  0  0  0  0  0  0  0  0  0  0  0
    3.4450   46.0210   55.0890 C   0  0  0  0  0  0  0  0  0  0  0  0
    6.0560   45.0920   51.8850 C   0  0  0  0  0  0  0  0  0  0  0  0
    4.8580   42.7620   50.5260 N   0  0  0  0  0  0  0  0  0  0  0  0
    3.2788   38.9604   48.5307 H   0  0  0  0  0  0  0  0  0  0  0  0
    2.6641   40.4799   47.7959 H   0  0  0  0  0  0  0  0  0  0  0  0
    4.4262   40.1310   47.7959 H   0  0  0  0  0  0  0  0  0  0  0  0
    2.6926   41.2619   49.9384 H   0  0  0  0  0  0  0  0  0  0  0  0
    3.8446   39.9818   50.4824 H   0  0  0  0  0  0  0  0  0  0  0  0
    8.1758   44.6992   49.2328 H   0  0  0  0  0  0  0  0  0  0  0  0
    9.1806   46.7336   50.2485 H   0  0  0  0  0  0  0  0  0  0  0  0
    8.3284   48.0623   53.5229 H   0  0  0  0  0  0  0  0  0  0  0  0
    9.3919   48.1872   52.0807 H   0  0  0  0  0  0  0  0  0  0  0  0
    7.7814   48.9828   52.0807 H   0  0  0  0  0  0  0  0  0  0  0  0
    6.5080   46.7120   54.5730 H   0  0  0  0  0  0  0  0  0  0  0  0
    4.8576   48.3693   54.4762 H   0  0  0  0  0  0  0  0  0  0  0  0
    4.6875   48.1234   52.6954 H   0  0  0  0  0  0  0  0  0  0  0  0
    2.6766   47.2449   51.9874 H   0  0  0  0  0  0  0  0  0  0  0  0
    0.7240   45.7298   52.3135 H   0  0  0  0  0  0  0  0  0  0  0  0
   -2.7166   43.9219   54.5006 H   0  0  0  0  0  0  0  0  0  0  0  0
   -1.8806   42.6008   55.3300 H   0  0  0  0  0  0  0  0  0  0  0  0
   -3.8425   44.2622   56.4824 H   0  0  0  0  0  0  0  0  0  0  0  0
   -2.6947   43.2901   57.4195 H   0  0  0  0  0  0  0  0  0  0  0  0
   -2.7017   46.2427   56.8600 H   0  0  0  0  0  0  0  0  0  0  0  0
   -1.9584   45.3808   58.2180 H   0  0  0  0  0  0  0  0  0  0  0  0
   -0.5710   46.4289   56.0049 H   0  0  0  0  0  0  0  0  0  0  0  0
    0.0828   45.1849   57.0806 H   0  0  0  0  0  0  0  0  0  0  0  0
    2.2535   44.5944   56.2024 H   0  0  0  0  0  0  0  0  0  0  0  0
    4.1996   46.1196   55.8833 H   0  0  0  0  0  0  0  0  0  0  0  0
    5.1849   44.6109   52.3538 H   0  0  0  0  0  0  0  0  0  0  0  0
  1  2  1  0
  2  3  1  0
  3  4  2  0
  4  5  1  0
  5  6  1  0
  6  7  1  0
  7  8  2  0
  8  9  1  0
  9 10  2  0
 10 11  1  0
 10 12  1  0
 12 13  1  0
 13 14  1  0
 14 15  1  0
 15 16  2  0
 16 17  1  0
 17 18  2  0
 18 19  1  0
 19 20  2  0
 19 21  1  0
 21 22  1  0
 22 23  1  0
 23 24  1  0
 24 25  1  0
 18 26  1  0
 26 27  2  0
 12 28  2  0
  6 29  2  0
 29  3  1  0
 28  7  1  0
 27 15  1  0
 25 21  1  0
  1 30  1  0
  1 31  1  0
  1 32  1  0
  2 33  1  0
  2 34  1  0
  8 35  1  0
  9 36  1  0
 11 37  1  0
 11 38  1  0
 11 39  1  0
 13 40  1  0
 14 41  1  0
 14 42  1  0
 16 43  1  0
 17 44  1  0
 22 45  1  0
 22 46  1  0
 23 47  1  0
 23 48  1  0
 24 49  1  0
 24 50  1  0
 25 51  1  0
 25 52  1  0
 26 53  1  0
 27 54  1  0
 28 55  1  0
M  END
>  <meeko>  (4) 
{"is_sidechain": [false], "free_energy": -8.901, "intermolecular_energy": -12.017, "internal_energy": -0.942}

$$$$
ligand_43_conformer_1_docked
     RDKit          3D

 55 58  0  0  0  0  0  0  0  0999 V2000
   10.0680   47.1890   54.5790 C   0  0  0  0  0  0  0  0  0  0  0  0
    9.7110   47.1830   53.0970 C   0  0  0  0  0  0  0  0  0  0  0  0
    8.2350   47.0230   52.9070 C   0  0  0  0  0  0  0  0  0  0  0  0
    7.3380   47.9930   53.1680 N   0  0  0  0  0  0  0  0  0  0  0  0
    6.1850   47.4640   52.8860 O   0  0  0  0  0  0  0  0  0  0  0  0
    6.3540   46.2280   52.4770 C   0  0  0  0  0  0  0  0  0  0  0  0
    5.2540   45.3270   52.0790 C   0  0  0  0  0  0  0  0  0  0  0  0
    3.9260   45.7590   52.1530 C   0  0  0  0  0  0  0  0  0  0  0  0
    2.8870   44.9120   51.7690 C   0  0  0  0  0  0  0  0  0  0  0  0
    3.1550   43.6170   51.2930 C   0  0  0  0  0  0  0  0  0  0  0  0
    2.0070   42.7450   50.8630 C   0  0  0  0  0  0  0  0  0  0  0  0
    4.4950   43.1610   51.2260 C   0  0  0  0  0  0  0  0  0  0  0  0
    4.7970   41.8300   50.7540 N   0  0  0  0  0  0  0  0  0  0  0  0
    5.8070   41.5290   49.7350 C   0  0  0  0  0  0  0  0  0  0  0  0
    5.1550   41.2290   48.4110 C   0  0  0  0  0  0  0  0  0  0  0  0
    4.0030   40.4290   48.3580 C   0  0  0  0  0  0  0  0  0  0  0  0
    3.3590   40.1970   47.1390 C   0  0  0  0  0  0  0  0  0  0  0  0
    3.8550   40.7690   45.9590 C   0  0  0  0  0  0  0  0  0  0  0  0
    3.1630   40.5380   44.6790 C   0  0  0  0  0  0  0  0  0  0  0  0
    2.1850   41.2740   44.3730 O   0  0  0  0  0  0  0  0  0  0  0  0
    3.6000   39.5160   43.7630 N   0  0  0  0  0  0  0  0  0  0  0  0
    2.8290   39.1260   42.5960 C   0  0  0  0  0  0  0  0  0  0  0  0
    3.7900   38.3570   41.7000 C   0  0  0  0  0  0  0  0  0  0  0  0
    4.9910   38.0010   42.5730 C   0  0  0  0  0  0  0  0  0  0  0  0
    4.9420   38.9490   43.7630 C   0  0  0  0  0  0  0  0  0  0  0  0
    5.0300   41.5360   46.0030 C   0  0  0  0  0  0  0  0  0  0  0  0
    5.6770   41.7640   47.2210 C   0  0  0  0  0  0  0  0  0  0  0  0
    5.5290   44.0260   51.6290 C   0  0  0  0  0  0  0  0  0  0  0  0
    7.6580   45.8850   52.4690 N   0  0  0  0  0  0  0  0  0  0  0  0
    9.1458   47.1735   55.1784 H   0  0  0  0  0  0  0  0  0  0  0  0
   10.6730   46.3009   54.8140 H   0  0  0  0  0  0  0  0  0  0  0  0
   10.6428   48.0969   54.8140 H   0  0  0  0  0  0  0  0  0  0  0  0
   10.0320   48.1330   52.6448 H   0  0  0  0  0  0  0  0  0  0  0  0
   10.2226   46.3373   52.6143 H   0  0  0  0  0  0  0  0  0  0  0  0
    3.6998   46.7724   52.5161 H   0  0  0  0  0  0  0  0  0  0  0  0
    1.8463   45.2612   51.8394 H   0  0  0  0  0  0  0  0  0  0  0  0
    1.4911   42.3532   51.7520 H   0  0  0  0  0  0  0  0  0  0  0  0
    1.3020   43.3373   50.2613 H   0  0  0  0  0  0  0  0  0  0  0  0
    2.3885   41.9069   50.2613 H   0  0  0  0  0  0  0  0  0  0  0  0
    4.2340   41.0210   51.1000 H   0  0  0  0  0  0  0  0  0  0  0  0
    6.4741   42.3961   49.6207 H   0  0  0  0  0  0  0  0  0  0  0  0
    6.3798   40.6461   50.0550 H   0  0  0  0  0  0  0  0  0  0  0  0
    3.6046   39.9820   49.2808 H   0  0  0  0  0  0  0  0  0  0  0  0
    2.4603   39.5636   47.1056 H   0  0  0  0  0  0  0  0  0  0  0  0
    1.9852   38.4851   42.8914 H   0  0  0  0  0  0  0  0  0  0  0  0
    2.4071   40.0007   42.0795 H   0  0  0  0  0  0  0  0  0  0  0  0
    3.3096   37.4430   41.3207 H   0  0  0  0  0  0  0  0  0  0  0  0
    4.0911   38.9551   40.8273 H   0  0  0  0  0  0  0  0  0  0  0  0
    4.9201   36.9572   42.9129 H   0  0  0  0  0  0  0  0  0  0  0  0
    5.9355   38.1004   42.0180 H   0  0  0  0  0  0  0  0  0  0  0  0
    5.1259   38.3998   44.6982 H   0  0  0  0  0  0  0  0  0  0  0  0
    5.7122   39.7310   43.6900 H   0  0  0  0  0  0  0  0  0  0  0  0
    5.4431   41.9592   45.0755 H   0  0  0  0  0  0  0  0  0  0  0  0
    6.5982   42.3645   47.2481 H   0  0  0  0  0  0  0  0  0  0  0  0
    6.5713   43.6766   51.5908 H   0  0  0  0  0  0  0  0  0  0  0  0
  1  2  1  0
  2  3  1  0
  3  4  2  0
  4  5  1  0
  5  6  1  0
  6  7  1  0
  7  8  2  0
  8  9  1  0
  9 10  2  0
 10 11  1  0
 10 12  1  0
 12 13  1  0
 13 14  1  0
 14 15  1  0
 15 16  2  0
 16 17  1  0
 17 18  2  0
 18 19  1  0
 19 20  2  0
 19 21  1  0
 21 22  1  0
 22 23  1  0
 23 24  1  0
 24 25  1  0
 18 26  1  0
 26 27  2  0
 12 28  2  0
  6 29  2  0
 29  3  1  0
 28  7  1  0
 27 15  1  0
 25 21  1  0
  1 30  1  0
  1 31  1  0
  1 32  1  0
  2 33  1  0
  2 34  1  0
  8 35  1  0
  9 36  1  0
 11 37  1  0
 11 38  1  0
 11 39  1  0
 13 40  1  0
 14 41  1  0
 14 42  1  0
 16 43  1  0
 17 44  1  0
 22 45  1  0
 22 46  1  0
 23 47  1  0
 23 48  1  0
 24 49  1  0
 24 50  1  0
 25 51  1  0
 25 52  1  0
 26 53  1  0
 27 54  1  0
 28 55  1  0
M  END
>  <meeko>  (5) 
{"is_sidechain": [false], "free_energy": -8.703, "intermolecular_energy": -11.795, "internal_energy": -0.897}

$$$$
