MODEL 1
REMARK VINA RESULT:    -9.273      0.000      0.000
REMARK INTER + INTRA:         -10.217
REMARK INTER:                 -10.086
REMARK INTRA:                  -0.131
REMARK UNBOUND:                -0.131
REMARK SMILES O=C(c1ccc2scnc2c1)N1CCC2(CCC(O)CC2)CC1
REMARK SMILES IDX 1 1 2 2 12 3 13 4 14 5 15 6 16 7 17 8 18 9 20 10 21 11 22 12
REMARK SMILES IDX 23 13 3 14 4 15 11 16 5 17 10 18 6 19 9 20 7 21 8 22 19 23
REMARK H PARENT 19 24
ROOT
ATOM      1  O   UNL     1       3.748  46.325  50.366  1.00  0.00    -0.269 OA
ATOM      2  C   UNL     1       4.313  46.207  51.487  1.00  0.00     0.253 C 
ATOM      3  N   UNL     1       3.511  46.105  52.680  1.00  0.00    -0.339 N 
ATOM      4  C   UNL     1       2.191  46.738  52.737  1.00  0.00     0.120 C 
ATOM      5  C   UNL     1       1.084  45.672  52.726  1.00  0.00     0.028 C 
ATOM      6  C   UNL     1       1.444  44.362  53.525  1.00  0.00    -0.026 C 
ATOM      7  C   UNL     1       0.238  43.910  54.397  1.00  0.00     0.010 C 
ATOM      8  C   UNL     1      -0.942  43.392  53.562  1.00  0.00     0.032 C 
ATOM      9  C   UNL     1      -0.520  42.221  52.668  1.00  0.00     0.114 C 
ATOM     10  C   UNL     1       0.642  42.635  51.755  1.00  0.00     0.032 C 
ATOM     11  C   UNL     1       1.832  43.203  52.552  1.00  0.00     0.010 C 
ATOM     12  C   UNL     1       2.639  44.637  54.485  1.00  0.00     0.028 C 
ATOM     13  C   UNL     1       3.881  45.157  53.741  1.00  0.00     0.120 C 
ENDROOT
BRANCH   2  14
ATOM     14  C   UNL     1       5.790  46.154  51.544  1.00  0.00     0.042 A 
ATOM     15  C   UNL     1       6.508  45.410  50.576  1.00  0.00     0.015 A 
ATOM     16  C   UNL     1       6.495  46.868  52.538  1.00  0.00     0.043 A 
ATOM     17  C   UNL     1       7.910  45.355  50.611  1.00  0.00     0.022 A 
ATOM     18  C   UNL     1       7.888  46.804  52.559  1.00  0.00     0.082 A 
ATOM     19  C   UNL     1       8.568  46.058  51.614  1.00  0.00     0.054 A 
ATOM     20  N   UNL     1       8.672  47.443  53.464  1.00  0.00    -0.245 NA
ATOM     21  S   UNL     1      10.216  46.185  51.900  1.00  0.00    -0.122 S 
ATOM     22  C   UNL     1       9.986  47.200  53.236  1.00  0.00     0.176 A 
ENDBRANCH   2  14
BRANCH   9  23
ATOM     23  O   UNL     1      -0.155  41.122  53.464  1.00  0.00    -0.393 OA
ATOM     24  H   UNL     1      -0.431  41.336  54.393  1.00  0.00     0.210 HD
ENDBRANCH   9  23
TORSDOF 2
ENDMDL
MODEL 2
REMARK VINA RESULT:    -8.274      1.703      2.115
REMARK INTER + INTRA:          -9.130
REMARK INTER:                  -9.073
REMARK INTRA:                  -0.057
REMARK UNBOUND:                -0.131
REMARK SMILES O=C(c1ccc2scnc2c1)N1CCC2(CCC(O)CC2)CC1
REMARK SMILES IDX 1 1 2 2 12 3 13 4 14 5 15 6 16 7 17 8 18 9 20 10 21 11 22 12
REMARK SMILES IDX 23 13 3 14 4 15 11 16 5 17 10 18 6 19 9 20 7 21 8 22 19 23
REMARK H PARENT 19 24
ROOT
ATOM      1  O   UNL     1       3.285  47.110  53.912  1.00  0.00    -0.269 OA
ATOM      2  C   UNL     1       3.994  46.089  53.696  1.00  0.00     0.253 C 
ATOM      3  N   UNL     1       3.412  44.778  53.835  1.00  0.00    -0.339 N 
ATOM      4  C   UNL     1       2.309  44.556  54.773  1.00  0.00     0.120 C 
ATOM      5  C   UNL     1       0.997  44.308  54.010  1.00  0.00     0.028 C 
ATOM      6  C   UNL     1       1.173  43.482  52.680  1.00  0.00    -0.026 C 
ATOM      7  C   UNL     1       0.067  42.395  52.567  1.00  0.00     0.010 C 
ATOM      8  C   UNL     1      -1.330  42.987  52.325  1.00  0.00     0.032 C 
ATOM      9  C   UNL     1      -1.359  43.847  51.057  1.00  0.00     0.114 C 
ATOM     10  C   UNL     1      -0.309  44.964  51.143  1.00  0.00     0.032 C 
ATOM     11  C   UNL     1       1.101  44.415  51.429  1.00  0.00     0.010 C 
ATOM     12  C   UNL     1       2.549  42.750  52.686  1.00  0.00     0.028 C 
ATOM     13  C   UNL     1       3.728  43.723  52.861  1.00  0.00     0.120 C 
ENDROOT
BRANCH   2  14
ATOM     14  C   UNL     1       5.404  46.268  53.285  1.00  0.00     0.042 A 
ATOM     15  C   UNL     1       5.770  46.103  51.928  1.00  0.00     0.015 A 
ATOM     16  C   UNL     1       6.385  46.635  54.233  1.00  0.00     0.043 A 
ATOM     17  C   UNL     1       7.102  46.277  51.520  1.00  0.00     0.022 A 
ATOM     18  C   UNL     1       7.704  46.803  53.811  1.00  0.00     0.082 A 
ATOM     19  C   UNL     1       8.042  46.623  52.483  1.00  0.00     0.054 A 
ATOM     20  N   UNL     1       8.731  47.152  54.628  1.00  0.00    -0.245 NA
ATOM     21  S   UNL     1       9.686  46.901  52.295  1.00  0.00    -0.122 S 
ATOM     22  C   UNL     1       9.896  47.245  53.940  1.00  0.00     0.176 A 
ENDBRANCH   2  14
BRANCH   9  23
ATOM     23  O   UNL     1      -1.129  43.040  49.930  1.00  0.00    -0.393 OA
ATOM     24  H   UNL     1      -0.249  42.601  50.065  1.00  0.00     0.210 HD
ENDBRANCH   9  23
TORSDOF 2
ENDMDL
MODEL 3
REMARK VINA RESULT:    -8.157      3.490      7.796
REMARK INTER + INTRA:          -9.003
REMARK INTER:                  -8.709
REMARK INTRA:                  -0.294
REMARK UNBOUND:                -0.131
REMARK SMILES O=C(c1ccc2scnc2c1)N1CCC2(CCC(O)CC2)CC1
REMARK SMILES IDX 1 1 2 2 12 3 13 4 14 5 15 6 16 7 17 8 18 9 20 10 21 11 22 12
REMARK SMILES IDX 23 13 3 14 4 15 11 16 5 17 10 18 6 19 9 20 7 21 8 22 19 23
REMARK H PARENT 19 24
ROOT
ATOM      1  O   UNL     1       3.891  43.147  52.765  1.00  0.00    -0.269 OA
ATOM      2  C   UNL     1       3.365  44.161  53.299  1.00  0.00     0.253 C 
ATOM      3  N   UNL     1       4.179  45.054  54.083  1.00  0.00    -0.339 N 
ATOM      4  C   UNL     1       5.359  44.548  54.789  1.00  0.00     0.120 C 
ATOM      5  C   UNL     1       6.645  45.063  54.122  1.00  0.00     0.028 C 
ATOM      6  C   UNL     1       6.539  46.534  53.571  1.00  0.00    -0.026 C 
ATOM      7  C   UNL     1       7.813  47.345  53.942  1.00  0.00     0.010 C 
ATOM      8  C   UNL     1       9.064  46.871  53.187  1.00  0.00     0.032 C 
ATOM      9  C   UNL     1       8.862  46.949  51.670  1.00  0.00     0.114 C 
ATOM     10  C   UNL     1       7.636  46.124  51.250  1.00  0.00     0.032 C 
ATOM     11  C   UNL     1       6.367  46.539  52.017  1.00  0.00     0.010 C 
ATOM     12  C   UNL     1       5.319  47.258  54.216  1.00  0.00     0.028 C 
ATOM     13  C   UNL     1       3.998  46.509  53.972  1.00  0.00     0.120 C 
ENDROOT
BRANCH   2  14
ATOM     14  C   UNL     1       1.923  44.417  53.086  1.00  0.00     0.042 A 
ATOM     15  C   UNL     1       1.443  44.717  51.788  1.00  0.00     0.015 A 
ATOM     16  C   UNL     1       1.014  44.333  54.164  1.00  0.00     0.043 A 
ATOM     17  C   UNL     1       0.078  44.955  51.568  1.00  0.00     0.022 A 
ATOM     18  C   UNL     1      -0.340  44.572  53.928  1.00  0.00     0.082 A 
ATOM     19  C   UNL     1      -0.785  44.879  52.655  1.00  0.00     0.054 A 
ATOM     20  N   UNL     1      -1.305  44.523  54.882  1.00  0.00    -0.245 NA
ATOM     21  S   UNL     1      -2.447  45.103  52.697  1.00  0.00    -0.122 S 
ATOM     22  C   UNL     1      -2.527  44.796  54.360  1.00  0.00     0.176 A 
ENDBRANCH   2  14
BRANCH   9  23
ATOM     23  O   UNL     1       8.711  48.290  51.277  1.00  0.00    -0.393 OA
ATOM     24  H   UNL     1       9.446  48.799  51.708  1.00  0.00     0.210 HD
ENDBRANCH   9  23
TORSDOF 2
ENDMDL
MODEL 4
REMARK VINA RESULT:    -7.643      3.413      7.593
REMARK INTER + INTRA:          -8.444
REMARK INTER:                  -8.527
REMARK INTRA:                   0.083
REMARK UNBOUND:                -0.131
REMARK SMILES O=C(c1ccc2scnc2c1)N1CCC2(CCC(O)CC2)CC1
REMARK SMILES IDX 1 1 2 2 12 3 13 4 14 5 15 6 16 7 17 8 18 9 20 10 21 11 22 12
REMARK SMILES IDX 23 13 3 14 4 15 11 16 5 17 10 18 6 19 9 20 7 21 8 22 19 23
REMARK H PARENT 19 24
ROOT
ATOM      1  O   UNL     1       3.125  46.382  50.490  1.00  0.00    -0.269 OA
ATOM      2  C   UNL     1       3.135  45.515  51.407  1.00  0.00     0.253 C 
ATOM      3  N   UNL     1       4.375  44.877  51.767  1.00  0.00    -0.339 N 
ATOM      4  C   UNL     1       5.435  44.707  50.770  1.00  0.00     0.120 C 
ATOM      5  C   UNL     1       6.617  45.639  51.080  1.00  0.00     0.028 C 
ATOM      6  C   UNL     1       6.906  45.822  52.618  1.00  0.00    -0.026 C 
ATOM      7  C   UNL     1       8.433  45.731  52.897  1.00  0.00     0.010 C 
ATOM      8  C   UNL     1       9.215  46.929  52.339  1.00  0.00     0.032 C 
ATOM      9  C   UNL     1       8.693  48.251  52.912  1.00  0.00     0.114 C 
ATOM     10  C   UNL     1       7.194  48.406  52.621  1.00  0.00     0.032 C 
ATOM     11  C   UNL     1       6.377  47.201  53.127  1.00  0.00     0.010 C 
ATOM     12  C   UNL     1       6.214  44.685  53.428  1.00  0.00     0.028 C 
ATOM     13  C   UNL     1       4.696  44.632  53.181  1.00  0.00     0.120 C 
ENDROOT
BRANCH   2  14
ATOM     14  C   UNL     1       1.870  45.193  52.103  1.00  0.00     0.042 A 
ATOM     15  C   UNL     1       0.817  44.561  51.399  1.00  0.00     0.015 A 
ATOM     16  C   UNL     1       1.716  45.482  53.478  1.00  0.00     0.043 A 
ATOM     17  C   UNL     1      -0.387  44.242  52.046  1.00  0.00     0.022 A 
ATOM     18  C   UNL     1       0.513  45.159  54.106  1.00  0.00     0.082 A 
ATOM     19  C   UNL     1      -0.508  44.556  53.395  1.00  0.00     0.054 A 
ATOM     20  N   UNL     1       0.247  45.389  55.417  1.00  0.00    -0.245 NA
ATOM     21  S   UNL     1      -1.807  44.291  54.423  1.00  0.00    -0.122 S 
ATOM     22  C   UNL     1      -0.998  44.968  55.748  1.00  0.00     0.176 A 
ENDBRANCH   2  14
BRANCH   9  23
ATOM     23  O   UNL     1       8.934  48.298  54.296  1.00  0.00    -0.393 OA
ATOM     24  H   UNL     1       9.918  48.262  54.417  1.00  0.00     0.210 HD
ENDBRANCH   9  23
TORSDOF 2
ENDMDL
MODEL 5
REMARK VINA RESULT:    -7.242      1.681      2.167
REMARK INTER + INTRA:          -8.007
REMARK INTER:                  -8.190
REMARK INTRA:                   0.183
REMARK UNBOUND:                -0.131
REMARK SMILES O=C(c1ccc2scnc2c1)N1CCC2(CCC(O)CC2)CC1
REMARK SMILES IDX 1 1 2 2 12 3 13 4 14 5 15 6 16 7 17 8 18 9 20 10 21 11 22 12
REMARK SMILES IDX 23 13 3 14 4 15 11 16 5 17 10 18 6 19 9 20 7 21 8 22 19 23
REMARK H PARENT 19 24
ROOT
ATOM      1  O   UNL     1       4.967  43.667  51.505  1.00  0.00    -0.269 OA
ATOM      2  C   UNL     1       4.810  44.827  51.974  1.00  0.00     0.253 C 
ATOM      3  N   UNL     1       3.528  45.473  51.857  1.00  0.00    -0.339 N 
ATOM      4  C   UNL     1       2.641  45.154  50.735  1.00  0.00     0.120 C 
ATOM      5  C   UNL     1       1.425  44.351  51.224  1.00  0.00     0.028 C 
ATOM      6  C   UNL     1       0.894  44.788  52.642  1.00  0.00    -0.026 C 
ATOM      7  C   UNL     1      -0.658  44.883  52.633  1.00  0.00     0.010 C 
ATOM      8  C   UNL     1      -1.340  43.512  52.509  1.00  0.00     0.032 C 
ATOM      9  C   UNL     1      -0.915  42.573  53.642  1.00  0.00     0.114 C 
ATOM     10  C   UNL     1       0.612  42.413  53.662  1.00  0.00     0.032 C 
ATOM     11  C   UNL     1       1.336  43.770  53.742  1.00  0.00     0.010 C 
ATOM     12  C   UNL     1       1.447  46.198  53.006  1.00  0.00     0.028 C 
ATOM     13  C   UNL     1       2.985  46.248  52.982  1.00  0.00     0.120 C 
ENDROOT
BRANCH   2  14
ATOM     14  C   UNL     1       5.947  45.486  52.654  1.00  0.00     0.042 A 
ATOM     15  C   UNL     1       5.827  45.884  54.007  1.00  0.00     0.015 A 
ATOM     16  C   UNL     1       7.167  45.692  51.971  1.00  0.00     0.043 A 
ATOM     17  C   UNL     1       6.899  46.504  54.668  1.00  0.00     0.022 A 
ATOM     18  C   UNL     1       8.222  46.310  52.643  1.00  0.00     0.082 A 
ATOM     19  C   UNL     1       8.078  46.705  53.960  1.00  0.00     0.054 A 
ATOM     20  N   UNL     1       9.438  46.563  52.093  1.00  0.00    -0.245 NA
ATOM     21  S   UNL     1       9.511  47.403  54.481  1.00  0.00    -0.122 S 
ATOM     22  C   UNL     1      10.264  47.167  52.982  1.00  0.00     0.176 A 
ENDBRANCH   2  14
BRANCH   9  23
ATOM     23  O   UNL     1      -1.374  43.074  54.872  1.00  0.00    -0.393 OA
ATOM     24  H   UNL     1      -0.583  43.438  55.347  1.00  0.00     0.210 HD
ENDBRANCH   9  23
TORSDOF 2
ENDMDL
