MODEL 1
REMARK VINA RESULT:    -8.272      0.000      0.000
REMARK INTER + INTRA:         -11.656
REMARK INTER:                 -11.174
REMARK INTRA:                  -0.482
REMARK UNBOUND:                -0.482
REMARK SMILES O=C(Nc1ccc(OC(F)F)cc1)c1ccc(Nc2ncccn2)cc1
REMARK SMILES IDX 4 1 5 2 6 3 7 4 12 5 13 6 3 7 1 8 2 9 14 11 15 12 26 13
REMARK SMILES IDX 16 14 25 15 17 16 18 17 19 19 20 20 24 21 21 22 23 23 22 24
REMARK SMILES IDX 8 25 9 26 10 27 11 28
REMARK H PARENT 3 10 18 18
ROOT
ATOM      1  C   UNL     1       6.805  45.760  52.066  1.00  0.00     0.041 A 
ATOM      2  C   UNL     1       6.480  45.633  53.425  1.00  0.00     0.030 A 
ATOM      3  C   UNL     1       7.151  46.390  54.388  1.00  0.00     0.049 A 
ATOM      4  C   UNL     1       8.168  47.276  54.015  1.00  0.00     0.126 A 
ATOM      5  C   UNL     1       8.512  47.391  52.656  1.00  0.00     0.049 A 
ATOM      6  C   UNL     1       7.840  46.634  51.691  1.00  0.00     0.030 A 
ENDROOT
BRANCH   1   7
ATOM      7  N   UNL     1       6.114  44.954  51.095  1.00  0.00    -0.322 N 
ATOM      8  O   UNL     1       7.995  44.222  49.919  1.00  0.00    -0.269 OA
ATOM      9  C   UNL     1       6.774  44.052  50.190  1.00  0.00     0.255 C 
ATOM     10  H   UNL     1       5.091  45.117  50.966  1.00  0.00     0.170 HD
BRANCH   9  11
ATOM     11  C   UNL     1       6.026  42.955  49.530  1.00  0.00     0.040 A 
ATOM     12  C   UNL     1       6.259  42.631  48.181  1.00  0.00     0.016 A 
ATOM     13  C   UNL     1       5.047  42.237  50.240  1.00  0.00     0.016 A 
ATOM     14  C   UNL     1       5.547  41.599  47.565  1.00  0.00     0.027 A 
ATOM     15  C   UNL     1       4.336  41.204  49.621  1.00  0.00     0.027 A 
ATOM     16  C   UNL     1       4.594  40.861  48.287  1.00  0.00     0.041 A 
BRANCH  16  17
ATOM     17  N   UNL     1       3.831  39.812  47.669  1.00  0.00    -0.324 N 
ATOM     18  H   UNL     1       3.814  38.876  48.133  1.00  0.00     0.170 HD
BRANCH  17  19
ATOM     19  C   UNL     1       3.181  39.930  46.395  1.00  0.00     0.227 A 
ATOM     20  N   UNL     1       2.296  40.935  46.153  1.00  0.00    -0.221 NA
ATOM     21  N   UNL     1       3.494  39.057  45.399  1.00  0.00    -0.221 NA
ATOM     22  C   UNL     1       1.699  41.069  44.940  1.00  0.00     0.117 A 
ATOM     23  C   UNL     1       2.919  39.157  44.172  1.00  0.00     0.117 A 
ATOM     24  C   UNL     1       2.000  40.173  43.916  1.00  0.00     0.040 A 
ENDBRANCH  17  19
ENDBRANCH  16  17
ENDBRANCH   9  11
ENDBRANCH   1   7
BRANCH   4  25
ATOM     25  O   UNL     1       8.809  48.014  55.022  1.00  0.00    -0.435 OA
BRANCH  25  26
ATOM     26  C   UNL     1      10.183  47.879  55.377  1.00  0.00     0.542 C 
ATOM     27  F   UNL     1      10.560  46.559  55.225  1.00  0.00    -0.167 F 
ATOM     28  F   UNL     1      10.367  48.249  56.698  1.00  0.00    -0.167 F 
ENDBRANCH  25  26
ENDBRANCH   4  25
TORSDOF 6
ENDMDL
MODEL 2
REMARK VINA RESULT:    -8.084      4.811      5.519
REMARK INTER + INTRA:         -11.401
REMARK INTER:                 -10.543
REMARK INTRA:                  -0.858
REMARK UNBOUND:                -0.482
REMARK SMILES O=C(Nc1ccc(OC(F)F)cc1)c1ccc(Nc2ncccn2)cc1
REMARK SMILES IDX 4 1 5 2 6 3 7 4 12 5 13 6 3 7 1 8 2 9 14 11 15 12 26 13
REMARK SMILES IDX 16 14 25 15 17 16 18 17 19 19 20 20 24 21 21 22 23 23 22 24
REMARK SMILES IDX 8 25 9 26 10 27 11 28
REMARK H PARENT 3 10 18 18
ROOT
ATOM      1  C   UNL     1       5.256  45.600  51.505  1.00  0.00     0.041 A 
ATOM      2  C   UNL     1       6.341  45.264  50.684  1.00  0.00     0.030 A 
ATOM      3  C   UNL     1       7.589  45.861  50.878  1.00  0.00     0.049 A 
ATOM      4  C   UNL     1       7.773  46.816  51.886  1.00  0.00     0.126 A 
ATOM      5  C   UNL     1       6.680  47.172  52.698  1.00  0.00     0.049 A 
ATOM      6  C   UNL     1       5.431  46.574  52.505  1.00  0.00     0.030 A 
ENDROOT
BRANCH   1   7
ATOM      7  N   UNL     1       3.975  44.987  51.272  1.00  0.00    -0.322 N 
ATOM      8  O   UNL     1       4.211  43.219  52.781  1.00  0.00    -0.269 OA
ATOM      9  C   UNL     1       3.434  43.933  52.087  1.00  0.00     0.255 C 
ATOM     10  H   UNL     1       3.463  45.244  50.399  1.00  0.00     0.170 HD
BRANCH   9  11
ATOM     11  C   UNL     1       1.981  43.638  52.084  1.00  0.00     0.040 A 
ATOM     12  C   UNL     1       1.415  42.779  53.044  1.00  0.00     0.016 A 
ATOM     13  C   UNL     1       1.147  44.194  51.097  1.00  0.00     0.016 A 
ATOM     14  C   UNL     1       0.046  42.503  53.031  1.00  0.00     0.027 A 
ATOM     15  C   UNL     1      -0.223  43.916  51.086  1.00  0.00     0.027 A 
ATOM     16  C   UNL     1      -0.790  43.088  52.064  1.00  0.00     0.041 A 
BRANCH  16  17
ATOM     17  N   UNL     1      -2.197  42.799  52.015  1.00  0.00    -0.324 N 
ATOM     18  H   UNL     1      -2.826  43.305  52.679  1.00  0.00     0.170 HD
BRANCH  17  19
ATOM     19  C   UNL     1      -2.784  41.780  51.193  1.00  0.00     0.227 A 
ATOM     20  N   UNL     1      -2.985  41.986  49.863  1.00  0.00    -0.221 NA
ATOM     21  N   UNL     1      -3.094  40.573  51.741  1.00  0.00    -0.221 NA
ATOM     22  C   UNL     1      -3.514  41.014  49.074  1.00  0.00     0.117 A 
ATOM     23  C   UNL     1      -3.624  39.576  50.986  1.00  0.00     0.117 A 
ATOM     24  C   UNL     1      -3.849  39.779  49.625  1.00  0.00     0.040 A 
ENDBRANCH  17  19
ENDBRANCH  16  17
ENDBRANCH   9  11
ENDBRANCH   1   7
BRANCH   4  25
ATOM     25  O   UNL     1       9.046  47.385  52.039  1.00  0.00    -0.435 OA
BRANCH  25  26
ATOM     26  C   UNL     1       9.919  47.136  53.137  1.00  0.00     0.542 C 
ATOM     27  F   UNL     1       9.827  45.804  53.494  1.00  0.00    -0.167 F 
ATOM     28  F   UNL     1       9.551  47.917  54.219  1.00  0.00    -0.167 F 
ENDBRANCH  25  26
ENDBRANCH   4  25
TORSDOF 6
ENDMDL
MODEL 3
REMARK VINA RESULT:    -8.045      1.918      2.829
REMARK INTER + INTRA:         -11.348
REMARK INTER:                 -10.626
REMARK INTRA:                  -0.722
REMARK UNBOUND:                -0.482
REMARK SMILES O=C(Nc1ccc(OC(F)F)cc1)c1ccc(Nc2ncccn2)cc1
REMARK SMILES IDX 4 1 5 2 6 3 7 4 12 5 13 6 3 7 1 8 2 9 14 11 15 12 26 13
REMARK SMILES IDX 16 14 25 15 17 16 18 17 19 19 20 20 24 21 21 22 23 23 22 24
REMARK SMILES IDX 8 25 9 26 10 27 11 28
REMARK H PARENT 3 10 18 18
ROOT
ATOM      1  C   UNL     1       8.037  44.320  49.692  1.00  0.00     0.041 A 
ATOM      2  C   UNL     1       9.418  44.216  49.910  1.00  0.00     0.030 A 
ATOM      3  C   UNL     1      10.059  45.065  50.816  1.00  0.00     0.049 A 
ATOM      4  C   UNL     1       9.335  46.042  51.510  1.00  0.00     0.126 A 
ATOM      5  C   UNL     1       7.952  46.163  51.279  1.00  0.00     0.049 A 
ATOM      6  C   UNL     1       7.311  45.314  50.372  1.00  0.00     0.030 A 
ENDROOT
BRANCH   1   7
ATOM      7  N   UNL     1       7.404  43.449  48.738  1.00  0.00    -0.322 N 
ATOM      8  O   UNL     1       6.814  41.750  50.229  1.00  0.00    -0.269 OA
ATOM      9  C   UNL     1       6.634  42.290  49.102  1.00  0.00     0.255 C 
ATOM     10  H   UNL     1       7.609  43.603  47.725  1.00  0.00     0.170 HD
BRANCH   9  11
ATOM     11  C   UNL     1       5.667  41.690  48.151  1.00  0.00     0.040 A 
ATOM     12  C   UNL     1       5.781  41.913  46.767  1.00  0.00     0.016 A 
ATOM     13  C   UNL     1       4.598  40.909  48.626  1.00  0.00     0.016 A 
ATOM     14  C   UNL     1       4.863  41.348  45.878  1.00  0.00     0.027 A 
ATOM     15  C   UNL     1       3.680  40.344  47.735  1.00  0.00     0.027 A 
ATOM     16  C   UNL     1       3.817  40.539  46.354  1.00  0.00     0.041 A 
BRANCH  16  17
ATOM     17  N   UNL     1       2.846  39.967  45.461  1.00  0.00    -0.324 N 
ATOM     18  H   UNL     1       2.877  38.935  45.296  1.00  0.00     0.170 HD
BRANCH  17  19
ATOM     19  C   UNL     1       1.905  40.733  44.694  1.00  0.00     0.227 A 
ATOM     20  N   UNL     1       1.464  40.288  43.485  1.00  0.00    -0.221 NA
ATOM     21  N   UNL     1       1.408  41.891  45.206  1.00  0.00    -0.221 NA
ATOM     22  C   UNL     1       0.552  40.994  42.768  1.00  0.00     0.117 A 
ATOM     23  C   UNL     1       0.494  42.626  44.520  1.00  0.00     0.117 A 
ATOM     24  C   UNL     1       0.046  42.190  43.274  1.00  0.00     0.040 A 
ENDBRANCH  17  19
ENDBRANCH  16  17
ENDBRANCH   9  11
ENDBRANCH   1   7
BRANCH   4  25
ATOM     25  O   UNL     1      10.026  46.867  52.410  1.00  0.00    -0.435 OA
BRANCH  25  26
ATOM     26  C   UNL     1       9.565  47.213  53.713  1.00  0.00     0.542 C 
ATOM     27  F   UNL     1       8.903  48.425  53.650  1.00  0.00    -0.167 F 
ATOM     28  F   UNL     1      10.638  47.333  54.578  1.00  0.00    -0.167 F 
ENDBRANCH  25  26
ENDBRANCH   4  25
TORSDOF 6
ENDMDL
MODEL 4
REMARK VINA RESULT:    -8.017      2.129      2.845
REMARK INTER + INTRA:         -11.311
REMARK INTER:                 -10.611
REMARK INTRA:                  -0.701
REMARK UNBOUND:                -0.482
REMARK SMILES O=C(Nc1ccc(OC(F)F)cc1)c1ccc(Nc2ncccn2)cc1
REMARK SMILES IDX 4 1 5 2 6 3 7 4 12 5 13 6 3 7 1 8 2 9 14 11 15 12 26 13
REMARK SMILES IDX 16 14 25 15 17 16 18 17 19 19 20 20 24 21 21 22 23 23 22 24
REMARK SMILES IDX 8 25 9 26 10 27 11 28
REMARK H PARENT 3 10 18 18
ROOT
ATOM      1  C   UNL     1       8.047  44.269  49.693  1.00  0.00     0.041 A 
ATOM      2  C   UNL     1       9.428  44.188  49.927  1.00  0.00     0.030 A 
ATOM      3  C   UNL     1      10.049  45.065  50.819  1.00  0.00     0.049 A 
ATOM      4  C   UNL     1       9.306  46.047  51.485  1.00  0.00     0.126 A 
ATOM      5  C   UNL     1       7.924  46.146  51.238  1.00  0.00     0.049 A 
ATOM      6  C   UNL     1       7.302  45.268  50.345  1.00  0.00     0.030 A 
ENDROOT
BRANCH   1   7
ATOM      7  N   UNL     1       7.434  43.369  48.753  1.00  0.00    -0.322 N 
ATOM      8  O   UNL     1       6.536  41.876  50.310  1.00  0.00    -0.269 OA
ATOM      9  C   UNL     1       6.524  42.320  49.128  1.00  0.00     0.255 C 
ATOM     10  H   UNL     1       7.755  43.408  47.760  1.00  0.00     0.170 HD
BRANCH   9  11
ATOM     11  C   UNL     1       5.607  41.717  48.131  1.00  0.00     0.040 A 
ATOM     12  C   UNL     1       5.758  41.980  46.758  1.00  0.00     0.016 A 
ATOM     13  C   UNL     1       4.547  40.893  48.551  1.00  0.00     0.016 A 
ATOM     14  C   UNL     1       4.886  41.412  45.825  1.00  0.00     0.027 A 
ATOM     15  C   UNL     1       3.675  40.326  47.617  1.00  0.00     0.027 A 
ATOM     16  C   UNL     1       3.849  40.561  46.246  1.00  0.00     0.041 A 
BRANCH  16  17
ATOM     17  N   UNL     1       2.925  39.985  45.308  1.00  0.00    -0.324 N 
ATOM     18  H   UNL     1       2.636  40.561  44.485  1.00  0.00     0.170 HD
BRANCH  17  19
ATOM     19  C   UNL     1       2.284  38.714  45.484  1.00  0.00     0.227 A 
ATOM     20  N   UNL     1       1.021  38.631  45.987  1.00  0.00    -0.221 NA
ATOM     21  N   UNL     1       2.926  37.579  45.094  1.00  0.00    -0.221 NA
ATOM     22  C   UNL     1       0.399  37.432  46.128  1.00  0.00     0.117 A 
ATOM     23  C   UNL     1       2.338  36.361  45.219  1.00  0.00     0.117 A 
ATOM     24  C   UNL     1       1.051  36.262  45.745  1.00  0.00     0.040 A 
ENDBRANCH  17  19
ENDBRANCH  16  17
ENDBRANCH   9  11
ENDBRANCH   1   7
BRANCH   4  25
ATOM     25  O   UNL     1       9.978  46.902  52.373  1.00  0.00    -0.435 OA
BRANCH  25  26
ATOM     26  C   UNL     1       9.559  47.179  53.706  1.00  0.00     0.542 C 
ATOM     27  F   UNL     1       8.921  48.404  53.733  1.00  0.00    -0.167 F 
ATOM     28  F   UNL     1      10.658  47.226  54.545  1.00  0.00    -0.167 F 
ENDBRANCH  25  26
ENDBRANCH   4  25
TORSDOF 6
ENDMDL
MODEL 5
REMARK VINA RESULT:    -7.959      6.163      7.836
REMARK INTER + INTRA:         -11.232
REMARK INTER:                 -10.392
REMARK INTRA:                  -0.840
REMARK UNBOUND:                -0.482
REMARK SMILES O=C(Nc1ccc(OC(F)F)cc1)c1ccc(Nc2ncccn2)cc1
REMARK SMILES IDX 4 1 5 2 6 3 7 4 12 5 13 6 3 7 1 8 2 9 14 11 15 12 26 13
REMARK SMILES IDX 16 14 25 15 17 16 18 17 19 19 20 20 24 21 21 22 23 23 22 24
REMARK SMILES IDX 8 25 9 26 10 27 11 28
REMARK H PARENT 3 10 18 18
ROOT
ATOM      1  C   UNL     1       5.257  45.878  51.610  1.00  0.00     0.041 A 
ATOM      2  C   UNL     1       5.748  46.812  52.534  1.00  0.00     0.030 A 
ATOM      3  C   UNL     1       7.090  47.198  52.507  1.00  0.00     0.049 A 
ATOM      4  C   UNL     1       7.970  46.649  51.567  1.00  0.00     0.126 A 
ATOM      5  C   UNL     1       7.487  45.695  50.652  1.00  0.00     0.049 A 
ATOM      6  C   UNL     1       6.143  45.309  50.678  1.00  0.00     0.030 A 
ENDROOT
BRANCH   1   7
ATOM      7  N   UNL     1       3.875  45.481  51.671  1.00  0.00    -0.322 N 
ATOM      8  O   UNL     1       4.209  43.384  52.645  1.00  0.00    -0.269 OA
ATOM      9  C   UNL     1       3.408  44.324  52.386  1.00  0.00     0.255 C 
ATOM     10  H   UNL     1       3.193  45.996  51.072  1.00  0.00     0.170 HD
BRANCH   9  11
ATOM     11  C   UNL     1       1.983  44.198  52.779  1.00  0.00     0.040 A 
ATOM     12  C   UNL     1       1.067  45.233  52.520  1.00  0.00     0.016 A 
ATOM     13  C   UNL     1       1.533  43.046  53.448  1.00  0.00     0.016 A 
ATOM     14  C   UNL     1      -0.272  45.108  52.897  1.00  0.00     0.027 A 
ATOM     15  C   UNL     1       0.192  42.923  53.826  1.00  0.00     0.027 A 
ATOM     16  C   UNL     1      -0.726  43.940  53.535  1.00  0.00     0.041 A 
BRANCH  16  17
ATOM     17  N   UNL     1      -2.093  43.799  53.955  1.00  0.00    -0.324 N 
ATOM     18  H   UNL     1      -2.813  43.589  53.227  1.00  0.00     0.170 HD
BRANCH  17  19
ATOM     19  C   UNL     1      -2.555  44.037  55.293  1.00  0.00     0.227 A 
ATOM     20  N   UNL     1      -2.935  43.004  56.095  1.00  0.00    -0.221 NA
ATOM     21  N   UNL     1      -2.563  45.306  55.783  1.00  0.00    -0.221 NA
ATOM     22  C   UNL     1      -3.346  43.221  57.371  1.00  0.00     0.117 A 
ATOM     23  C   UNL     1      -2.967  45.565  57.054  1.00  0.00     0.117 A 
ATOM     24  C   UNL     1      -3.372  44.518  57.881  1.00  0.00     0.040 A 
ENDBRANCH  17  19
ENDBRANCH  16  17
ENDBRANCH   9  11
ENDBRANCH   1   7
BRANCH   4  25
ATOM     25  O   UNL     1       9.308  47.072  51.582  1.00  0.00    -0.435 OA
BRANCH  25  26
ATOM     26  C   UNL     1      10.257  46.726  52.586  1.00  0.00     0.542 C 
ATOM     27  F   UNL     1       9.979  45.455  53.051  1.00  0.00    -0.167 F 
ATOM     28  F   UNL     1      10.174  47.618  53.641  1.00  0.00    -0.167 F 
ENDBRANCH  25  26
ENDBRANCH   4  25
TORSDOF 6
ENDMDL
