ligand_59_conformer_2_docked
     RDKit          3D

 49 51  0  0  0  0  0  0  0  0999 V2000
   11.0740   47.5540   56.3860 C   0  0  0  0  0  0  0  0  0  0  0  0
    9.8960   48.1110   55.8120 O   0  0  0  0  0  0  0  0  0  0  0  0
    9.2520   47.5420   54.7120 C   0  0  0  0  0  0  0  0  0  0  0  0
    9.9920   46.9690   53.7280 N   0  0  0  0  0  0  0  0  0  0  0  0
    9.4010   46.4120   52.6380 C   0  0  0  0  0  0  0  0  0  0  0  0
   10.2450   45.8000   51.5650 C   0  0  0  0  0  0  0  0  0  0  0  0
    8.0080   46.4190   52.5250 C   0  0  0  0  0  0  0  0  0  0  0  0
    7.2510   46.9980   53.5540 C   0  0  0  0  0  0  0  0  0  0  0  0
    5.8130   47.0540   53.4840 N   0  0  0  0  0  0  0  0  0  0  0  0
    5.1520   46.7740   52.2030 C   0  0  0  0  0  0  0  0  0  0  0  0
    3.6250   46.9080   52.3010 C   0  0  0  0  0  0  0  0  0  0  0  0
    3.1190   46.2740   53.5310 N   0  0  0  0  0  0  0  0  0  0  0  0
    1.8240   45.6290   53.5120 C   0  0  0  0  0  0  0  0  0  0  0  0
    1.0420   45.8360   52.5430 O   0  0  0  0  0  0  0  0  0  0  0  0
    1.3520   44.7340   54.6420 C   0  0  0  0  0  0  0  0  0  0  0  0
    0.4530   45.5400   55.6140 C   0  0  0  0  0  0  0  0  0  0  0  0
   -0.4670   44.6160   56.4170 C   0  0  0  0  0  0  0  0  0  0  0  0
   -1.4320   43.8360   55.5010 C   0  0  0  0  0  0  0  0  0  0  0  0
   -0.8730   43.5900   54.0850 C   0  0  0  0  0  0  0  0  0  0  0  0
    0.6560   43.4580   54.0960 C   0  0  0  0  0  0  0  0  0  0  0  0
    3.8360   46.4760   54.8030 C   0  0  0  0  0  0  0  0  0  0  0  0
    5.0040   47.4520   54.6430 C   0  0  0  0  0  0  0  0  0  0  0  0
    7.8940   47.5560   54.6140 N   0  0  0  0  0  0  0  0  0  0  0  0
   10.9994   47.5893   57.4829 H   0  0  0  0  0  0  0  0  0  0  0  0
   11.1824   46.5093   56.0593 H   0  0  0  0  0  0  0  0  0  0  0  0
   11.9503   48.1332   56.0593 H   0  0  0  0  0  0  0  0  0  0  0  0
   11.0540   45.2134   52.0247 H   0  0  0  0  0  0  0  0  0  0  0  0
    9.6235   45.1412   50.9407 H   0  0  0  0  0  0  0  0  0  0  0  0
   10.6780   46.5954   50.9407 H   0  0  0  0  0  0  0  0  0  0  0  0
    7.5147   45.9788   51.6458 H   0  0  0  0  0  0  0  0  0  0  0  0
    5.5230   47.4842   51.4494 H   0  0  0  0  0  0  0  0  0  0  0  0
    5.3842   45.7364   51.9209 H   0  0  0  0  0  0  0  0  0  0  0  0
    3.3570   47.9748   52.3093 H   0  0  0  0  0  0  0  0  0  0  0  0
    3.1719   46.4045   51.4343 H   0  0  0  0  0  0  0  0  0  0  0  0
    2.2243   44.3834   55.2132 H   0  0  0  0  0  0  0  0  0  0  0  0
    1.0924   46.1023   56.3104 H   0  0  0  0  0  0  0  0  0  0  0  0
   -0.1729   46.2237   55.0217 H   0  0  0  0  0  0  0  0  0  0  0  0
    0.1498   43.8987   56.9783 H   0  0  0  0  0  0  0  0  0  0  0  0
   -1.0673   45.2371   57.0981 H   0  0  0  0  0  0  0  0  0  0  0  0
   -1.6424   42.8617   55.9663 H   0  0  0  0  0  0  0  0  0  0  0  0
   -2.3381   44.4495   55.3888 H   0  0  0  0  0  0  0  0  0  0  0  0
   -1.3085   42.6622   53.6856 H   0  0  0  0  0  0  0  0  0  0  0  0
   -1.1393   44.4519   53.4556 H   0  0  0  0  0  0  0  0  0  0  0  0
    0.9331   42.6041   54.7316 H   0  0  0  0  0  0  0  0  0  0  0  0
    0.9892   43.3100   53.0582 H   0  0  0  0  0  0  0  0  0  0  0  0
    3.1342   46.8784   55.5483 H   0  0  0  0  0  0  0  0  0  0  0  0
    4.2405   45.5059   55.1276 H   0  0  0  0  0  0  0  0  0  0  0  0
    4.6146   48.4689   54.4876 H   0  0  0  0  0  0  0  0  0  0  0  0
    5.6259   47.4347   55.5502 H   0  0  0  0  0  0  0  0  0  0  0  0
  1  2  1  0
  2  3  1  0
  3  4  2  0
  4  5  1  0
  5  6  1  0
  5  7  2  0
  7  8  1  0
  8  9  1  0
  9 10  1  0
 10 11  1  0
 11 12  1  0
 12 13  1  0
 13 14  2  0
 13 15  1  0
 15 16  1  0
 16 17  1  0
 17 18  1  0
 18 19  1  0
 19 20  1  0
 12 21  1  0
 21 22  1  0
  8 23  2  0
 23  3  1  0
 22  9  1  0
 20 15  1  0
  1 24  1  0
  1 25  1  0
  1 26  1  0
  6 27  1  0
  6 28  1  0
  6 29  1  0
  7 30  1  0
 10 31  1  0
 10 32  1  0
 11 33  1  0
 11 34  1  0
 15 35  1  0
 16 36  1  0
 16 37  1  0
 17 38  1  0
 17 39  1  0
 18 40  1  0
 18 41  1  0
 19 42  1  0
 19 43  1  0
 20 44  1  0
 20 45  1  0
 21 46  1  0
 21 47  1  0
 22 48  1  0
 22 49  1  0
M  END
>  <meeko>  (1) 
{"is_sidechain": [false], "free_energy": -8.907, "intermolecular_energy": -10.469, "internal_energy": -0.337}

$$$$
ligand_59_conformer_2_docked
     RDKit          3D

 49 51  0  0  0  0  0  0  0  0999 V2000
   -0.1960   47.8290   59.2320 C   0  0  0  0  0  0  0  0  0  0  0  0
    0.7910   46.9090   58.7800 O   0  0  0  0  0  0  0  0  0  0  0  0
    0.6750   46.2110   57.5760 C   0  0  0  0  0  0  0  0  0  0  0  0
   -0.5320   45.7100   57.2080 N   0  0  0  0  0  0  0  0  0  0  0  0
   -0.6830   45.0190   56.0480 C   0  0  0  0  0  0  0  0  0  0  0  0
   -2.0240   44.4690   55.6770 C   0  0  0  0  0  0  0  0  0  0  0  0
    0.4190   44.8220   55.2100 C   0  0  0  0  0  0  0  0  0  0  0  0
    1.6580   45.3570   55.5890 C   0  0  0  0  0  0  0  0  0  0  0  0
    2.8340   45.1690   54.7780 N   0  0  0  0  0  0  0  0  0  0  0  0
    2.6900   45.1330   53.3170 C   0  0  0  0  0  0  0  0  0  0  0  0
    4.0340   44.8950   52.6120 C   0  0  0  0  0  0  0  0  0  0  0  0
    5.0980   45.7160   53.2150 N   0  0  0  0  0  0  0  0  0  0  0  0
    6.1540   46.2350   52.3740 C   0  0  0  0  0  0  0  0  0  0  0  0
    6.3000   45.7760   51.2070 O   0  0  0  0  0  0  0  0  0  0  0  0
    7.1260   47.2950   52.8590 C   0  0  0  0  0  0  0  0  0  0  0  0
    7.7270   46.8750   54.2240 C   0  0  0  0  0  0  0  0  0  0  0  0
    9.0620   47.5790   54.4840 C   0  0  0  0  0  0  0  0  0  0  0  0
   10.1200   47.2050   53.4260 C   0  0  0  0  0  0  0  0  0  0  0  0
    9.5160   46.8340   52.0560 C   0  0  0  0  0  0  0  0  0  0  0  0
    8.2110   47.5940   51.7880 C   0  0  0  0  0  0  0  0  0  0  0  0
    5.1860   45.8310   54.6830 C   0  0  0  0  0  0  0  0  0  0  0  0
    4.1540   44.9440   55.3800 C   0  0  0  0  0  0  0  0  0  0  0  0
    1.7560   46.0270   56.7690 N   0  0  0  0  0  0  0  0  0  0  0  0
   -0.2093   47.8414   60.3318 H   0  0  0  0  0  0  0  0  0  0  0  0
    0.0416   48.8354   58.8568 H   0  0  0  0  0  0  0  0  0  0  0  0
   -1.1832   47.5214   58.8568 H   0  0  0  0  0  0  0  0  0  0  0  0
   -2.5906   44.2366   56.5908 H   0  0  0  0  0  0  0  0  0  0  0  0
   -2.5745   45.2140   55.0837 H   0  0  0  0  0  0  0  0  0  0  0  0
   -1.8929   43.5520   55.0837 H   0  0  0  0  0  0  0  0  0  0  0  0
    0.3156   44.2580   54.2713 H   0  0  0  0  0  0  0  0  0  0  0  0
    1.9991   44.3203   53.0481 H   0  0  0  0  0  0  0  0  0  0  0  0
    2.3027   46.1091   52.9896 H   0  0  0  0  0  0  0  0  0  0  0  0
    4.3045   43.8326   52.7021 H   0  0  0  0  0  0  0  0  0  0  0  0
    3.9300   45.1773   51.5539 H   0  0  0  0  0  0  0  0  0  0  0  0
    6.5840   48.2395   53.0146 H   0  0  0  0  0  0  0  0  0  0  0  0
    7.0200   47.1406   55.0238 H   0  0  0  0  0  0  0  0  0  0  0  0
    7.9044   45.7895   54.2062 H   0  0  0  0  0  0  0  0  0  0  0  0
    8.9020   48.6670   54.4590 H   0  0  0  0  0  0  0  0  0  0  0  0
    9.4330   47.2575   55.4684 H   0  0  0  0  0  0  0  0  0  0  0  0
   10.7935   48.0637   53.2885 H   0  0  0  0  0  0  0  0  0  0  0  0
   10.6490   46.3152   53.7980 H   0  0  0  0  0  0  0  0  0  0  0  0
   10.2416   47.0820   51.2673 H   0  0  0  0  0  0  0  0  0  0  0  0
    9.2916   45.7571   52.0600 H   0  0  0  0  0  0  0  0  0  0  0  0
    8.4230   48.6734   51.7905 H   0  0  0  0  0  0  0  0  0  0  0  0
    7.8226   47.2640   50.8132 H   0  0  0  0  0  0  0  0  0  0  0  0
    6.1931   45.5277   55.0051 H   0  0  0  0  0  0  0  0  0  0  0  0
    4.9835   46.8764   54.9589 H   0  0  0  0  0  0  0  0  0  0  0  0
    4.4370   43.8878   55.2605 H   0  0  0  0  0  0  0  0  0  0  0  0
    4.1176   45.1932   56.4508 H   0  0  0  0  0  0  0  0  0  0  0  0
  1  2  1  0
  2  3  1  0
  3  4  2  0
  4  5  1  0
  5  6  1  0
  5  7  2  0
  7  8  1  0
  8  9  1  0
  9 10  1  0
 10 11  1  0
 11 12  1  0
 12 13  1  0
 13 14  2  0
 13 15  1  0
 15 16  1  0
 16 17  1  0
 17 18  1  0
 18 19  1  0
 19 20  1  0
 12 21  1  0
 21 22  1  0
  8 23  2  0
 23  3  1  0
 22  9  1  0
 20 15  1  0
  1 24  1  0
  1 25  1  0
  1 26  1  0
  6 27  1  0
  6 28  1  0
  6 29  1  0
  7 30  1  0
 10 31  1  0
 10 32  1  0
 11 33  1  0
 11 34  1  0
 15 35  1  0
 16 36  1  0
 16 37  1  0
 17 38  1  0
 17 39  1  0
 18 40  1  0
 18 41  1  0
 19 42  1  0
 19 43  1  0
 20 44  1  0
 20 45  1  0
 21 46  1  0
 21 47  1  0
 22 48  1  0
 22 49  1  0
M  END
>  <meeko>  (2) 
{"is_sidechain": [false], "free_energy": -8.21, "intermolecular_energy": -10.405, "internal_energy": 0.418}

$$$$
ligand_59_conformer_2_docked
     RDKit          3D

 49 51  0  0  0  0  0  0  0  0999 V2000
    0.2690   45.9440   57.2230 C   0  0  0  0  0  0  0  0  0  0  0  0
    1.1600   45.0400   56.5800 O   0  0  0  0  0  0  0  0  0  0  0  0
    1.2970   44.9750   55.1910 C   0  0  0  0  0  0  0  0  0  0  0  0
    0.1930   45.0780   54.4070 N   0  0  0  0  0  0  0  0  0  0  0  0
    0.2840   45.0120   53.0530 C   0  0  0  0  0  0  0  0  0  0  0  0
   -0.9520   45.1170   52.2170 C   0  0  0  0  0  0  0  0  0  0  0  0
    1.5340   44.8420   52.4500 C   0  0  0  0  0  0  0  0  0  0  0  0
    2.6700   44.7530   53.2660 C   0  0  0  0  0  0  0  0  0  0  0  0
    3.9820   44.5560   52.7050 N   0  0  0  0  0  0  0  0  0  0  0  0
    4.1070   44.3130   51.2610 C   0  0  0  0  0  0  0  0  0  0  0  0
    5.5680   44.0940   50.8400 C   0  0  0  0  0  0  0  0  0  0  0  0
    6.4560   45.0750   51.4890 N   0  0  0  0  0  0  0  0  0  0  0  0
    7.6150   45.5620   50.7730 C   0  0  0  0  0  0  0  0  0  0  0  0
    7.9950   44.9640   49.7290 O   0  0  0  0  0  0  0  0  0  0  0  0
    8.4200   46.7540   51.2560 C   0  0  0  0  0  0  0  0  0  0  0  0
    7.6030   47.5560   52.3000 C   0  0  0  0  0  0  0  0  0  0  0  0
    8.5160   48.3940   53.1980 C   0  0  0  0  0  0  0  0  0  0  0  0
    9.4850   47.5110   54.0100 C   0  0  0  0  0  0  0  0  0  0  0  0
    9.8320   46.1780   53.3160 C   0  0  0  0  0  0  0  0  0  0  0  0
    9.8110   46.3140   51.7880 C   0  0  0  0  0  0  0  0  0  0  0  0
    6.2700   45.3930   52.9160 C   0  0  0  0  0  0  0  0  0  0  0  0
    5.1820   44.5240   53.5500 C   0  0  0  0  0  0  0  0  0  0  0  0
    2.5190   44.8090   54.6170 N   0  0  0  0  0  0  0  0  0  0  0  0
    0.3684   45.8432   58.3139 H   0  0  0  0  0  0  0  0  0  0  0  0
    0.5146   46.9743   56.9261 H   0  0  0  0  0  0  0  0  0  0  0  0
   -0.7648   45.7134   56.9261 H   0  0  0  0  0  0  0  0  0  0  0  0
   -1.8325   45.1918   52.8721 H   0  0  0  0  0  0  0  0  0  0  0  0
   -0.8902   46.0131   51.5821 H   0  0  0  0  0  0  0  0  0  0  0  0
   -1.0422   44.2233   51.5821 H   0  0  0  0  0  0  0  0  0  0  0  0
    1.6241   44.7793   51.3555 H   0  0  0  0  0  0  0  0  0  0  0  0
    3.5238   43.4177   50.9995 H   0  0  0  0  0  0  0  0  0  0  0  0
    3.7300   45.2010   50.7326 H   0  0  0  0  0  0  0  0  0  0  0  0
    5.8783   43.0797   51.1312 H   0  0  0  0  0  0  0  0  0  0  0  0
    5.6420   44.2209   49.7498 H   0  0  0  0  0  0  0  0  0  0  0  0
    8.6172   47.4247   50.4068 H   0  0  0  0  0  0  0  0  0  0  0  0
    6.9071   48.2252   51.7728 H   0  0  0  0  0  0  0  0  0  0  0  0
    7.0542   46.8429   52.9327 H   0  0  0  0  0  0  0  0  0  0  0  0
    9.1016   49.0807   52.5691 H   0  0  0  0  0  0  0  0  0  0  0  0
    7.8838   48.9497   53.9061 H   0  0  0  0  0  0  0  0  0  0  0  0
   10.4170   48.0730   54.1700 H   0  0  0  0  0  0  0  0  0  0  0  0
    8.9803   47.2616   54.9550 H   0  0  0  0  0  0  0  0  0  0  0  0
   10.8370   45.8620   53.6324 H   0  0  0  0  0  0  0  0  0  0  0  0
    9.0763   45.4328   53.6053 H   0  0  0  0  0  0  0  0  0  0  0  0
   10.5579   47.0642   51.4891 H   0  0  0  0  0  0  0  0  0  0  0  0
   10.0395   45.3274   51.3585 H   0  0  0  0  0  0  0  0  0  0  0  0
    7.2182   45.2212   53.4465 H   0  0  0  0  0  0  0  0  0  0  0  0
    5.9598   46.4453   52.9962 H   0  0  0  0  0  0  0  0  0  0  0  0
    5.5429   43.4885   53.6367 H   0  0  0  0  0  0  0  0  0  0  0  0
    4.9385   44.9102   54.5508 H   0  0  0  0  0  0  0  0  0  0  0  0
  1  2  1  0
  2  3  1  0
  3  4  2  0
  4  5  1  0
  5  6  1  0
  5  7  2  0
  7  8  1  0
  8  9  1  0
  9 10  1  0
 10 11  1  0
 11 12  1  0
 12 13  1  0
 13 14  2  0
 13 15  1  0
 15 16  1  0
 16 17  1  0
 17 18  1  0
 18 19  1  0
 19 20  1  0
 12 21  1  0
 21 22  1  0
  8 23  2  0
 23  3  1  0
 22  9  1  0
 20 15  1  0
  1 24  1  0
  1 25  1  0
  1 26  1  0
  6 27  1  0
  6 28  1  0
  6 29  1  0
  7 30  1  0
 10 31  1  0
 10 32  1  0
 11 33  1  0
 11 34  1  0
 15 35  1  0
 16 36  1  0
 16 37  1  0
 17 38  1  0
 17 39  1  0
 18 40  1  0
 18 41  1  0
 19 42  1  0
 19 43  1  0
 20 44  1  0
 20 45  1  0
 21 46  1  0
 21 47  1  0
 22 48  1  0
 22 49  1  0
M  END
>  <meeko>  (3) 
{"is_sidechain": [false], "free_energy": -8.182, "intermolecular_energy": -10.543, "internal_energy": 0.589}

$$$$
ligand_59_conformer_2_docked
     RDKit          3D

 49 51  0  0  0  0  0  0  0  0999 V2000
   -1.0230   44.1510   51.1980 C   0  0  0  0  0  0  0  0  0  0  0  0
   -0.8860   45.0080   52.3250 O   0  0  0  0  0  0  0  0  0  0  0  0
    0.2230   44.9680   53.1730 C   0  0  0  0  0  0  0  0  0  0  0  0
    0.0480   45.1430   54.5090 N   0  0  0  0  0  0  0  0  0  0  0  0
    1.1030   45.1180   55.3650 C   0  0  0  0  0  0  0  0  0  0  0  0
    0.8800   45.3260   56.8290 C   0  0  0  0  0  0  0  0  0  0  0  0
    2.3930   44.9010   54.8700 C   0  0  0  0  0  0  0  0  0  0  0  0
    2.5620   44.7040   53.4920 C   0  0  0  0  0  0  0  0  0  0  0  0
    3.8680   44.4970   52.9200 N   0  0  0  0  0  0  0  0  0  0  0  0
    3.9740   44.1690   51.4920 C   0  0  0  0  0  0  0  0  0  0  0  0
    5.4320   43.9510   51.0590 C   0  0  0  0  0  0  0  0  0  0  0  0
    6.3120   44.9850   51.6320 N   0  0  0  0  0  0  0  0  0  0  0  0
    7.4490   45.4480   50.8690 C   0  0  0  0  0  0  0  0  0  0  0  0
    7.8240   44.7940   49.8560 O   0  0  0  0  0  0  0  0  0  0  0  0
    8.2400   46.6810   51.2650 C   0  0  0  0  0  0  0  0  0  0  0  0
    7.4820   47.4630   52.3670 C   0  0  0  0  0  0  0  0  0  0  0  0
    8.4330   48.3540   53.1710 C   0  0  0  0  0  0  0  0  0  0  0  0
    9.5070   47.5260   53.9060 C   0  0  0  0  0  0  0  0  0  0  0  0
    9.8510   46.1990   53.2000 C   0  0  0  0  0  0  0  0  0  0  0  0
    9.6910   46.3100   51.6770 C   0  0  0  0  0  0  0  0  0  0  0  0
    6.1430   45.3850   53.0410 C   0  0  0  0  0  0  0  0  0  0  0  0
    5.0820   44.5380   53.7450 C   0  0  0  0  0  0  0  0  0  0  0  0
    1.4730   44.7550   52.6780 N   0  0  0  0  0  0  0  0  0  0  0  0
   -1.1880   43.1187   51.5403 H   0  0  0  0  0  0  0  0  0  0  0  0
   -1.8803   44.4776   50.5911 H   0  0  0  0  0  0  0  0  0  0  0  0
   -0.1066   44.1940   50.5911 H   0  0  0  0  0  0  0  0  0  0  0  0
    1.5678   44.6845   57.3994 H   0  0  0  0  0  0  0  0  0  0  0  0
    1.0667   46.3801   57.0822 H   0  0  0  0  0  0  0  0  0  0  0  0
   -0.1585   45.0665   57.0822 H   0  0  0  0  0  0  0  0  0  0  0  0
    3.2585   44.8852   55.5487 H   0  0  0  0  0  0  0  0  0  0  0  0
    3.4037   43.2491   51.2955 H   0  0  0  0  0  0  0  0  0  0  0  0
    3.5717   45.0165   50.9176 H   0  0  0  0  0  0  0  0  0  0  0  0
    5.7662   42.9618   51.4050 H   0  0  0  0  0  0  0  0  0  0  0  0
    5.4854   44.0131   49.9621 H   0  0  0  0  0  0  0  0  0  0  0  0
    8.3329   47.3464   50.3940 H   0  0  0  0  0  0  0  0  0  0  0  0
    6.7136   48.0931   51.8952 H   0  0  0  0  0  0  0  0  0  0  0  0
    7.0222   46.7372   53.0539 H   0  0  0  0  0  0  0  0  0  0  0  0
    8.9310   49.0544   52.4844 H   0  0  0  0  0  0  0  0  0  0  0  0
    7.8414   48.8941   53.9249 H   0  0  0  0  0  0  0  0  0  0  0  0
   10.4236   48.1300   53.9777 H   0  0  0  0  0  0  0  0  0  0  0  0
    9.0976   47.2698   54.8943 H   0  0  0  0  0  0  0  0  0  0  0  0
   10.8928   45.9317   53.4308 H   0  0  0  0  0  0  0  0  0  0  0  0
    9.1571   45.4266   53.5631 H   0  0  0  0  0  0  0  0  0  0  0  0
   10.3747   47.0872   51.3047 H   0  0  0  0  0  0  0  0  0  0  0  0
    9.9254   45.3280   51.2403 H   0  0  0  0  0  0  0  0  0  0  0  0
    7.1027   45.2618   53.5643 H   0  0  0  0  0  0  0  0  0  0  0  0
    5.8145   46.4346   53.0629 H   0  0  0  0  0  0  0  0  0  0  0  0
    5.4633   43.5163   53.8887 H   0  0  0  0  0  0  0  0  0  0  0  0
    4.8473   44.9806   54.7243 H   0  0  0  0  0  0  0  0  0  0  0  0
  1  2  1  0
  2  3  1  0
  3  4  2  0
  4  5  1  0
  5  6  1  0
  5  7  2  0
  7  8  1  0
  8  9  1  0
  9 10  1  0
 10 11  1  0
 11 12  1  0
 12 13  1  0
 13 14  2  0
 13 15  1  0
 15 16  1  0
 16 17  1  0
 17 18  1  0
 18 19  1  0
 19 20  1  0
 12 21  1  0
 21 22  1  0
  8 23  2  0
 23  3  1  0
 22  9  1  0
 20 15  1  0
  1 24  1  0
  1 25  1  0
  1 26  1  0
  6 27  1  0
  6 28  1  0
  6 29  1  0
  7 30  1  0
 10 31  1  0
 10 32  1  0
 11 33  1  0
 11 34  1  0
 15 35  1  0
 16 36  1  0
 16 37  1  0
 17 38  1  0
 17 39  1  0
 18 40  1  0
 18 41  1  0
 19 42  1  0
 19 43  1  0
 20 44  1  0
 20 45  1  0
 21 46  1  0
 21 47  1  0
 22 48  1  0
 22 49  1  0
M  END
>  <meeko>  (4) 
{"is_sidechain": [false], "free_energy": -8.061, "intermolecular_energy": -10.482, "internal_energy": 0.671}

$$$$
ligand_59_conformer_2_docked
     RDKit          3D

 49 51  0  0  0  0  0  0  0  0999 V2000
    8.0080   43.7630   49.0480 C   0  0  0  0  0  0  0  0  0  0  0  0
    8.8440   44.7060   49.7090 O   0  0  0  0  0  0  0  0  0  0  0  0
    8.4190   45.4430   50.8170 C   0  0  0  0  0  0  0  0  0  0  0  0
    9.3430   45.9570   51.6710 N   0  0  0  0  0  0  0  0  0  0  0  0
    8.9680   46.6720   52.7630 C   0  0  0  0  0  0  0  0  0  0  0  0
   10.0090   47.2150   53.6910 C   0  0  0  0  0  0  0  0  0  0  0  0
    7.6110   46.8930   53.0160 C   0  0  0  0  0  0  0  0  0  0  0  0
    6.6650   46.3730   52.1210 C   0  0  0  0  0  0  0  0  0  0  0  0
    5.2520   46.5490   52.3390 N   0  0  0  0  0  0  0  0  0  0  0  0
    4.3230   46.2680   51.2370 C   0  0  0  0  0  0  0  0  0  0  0  0
    2.8630   46.5380   51.6330 C   0  0  0  0  0  0  0  0  0  0  0  0
    2.5750   46.0080   52.9770 N   0  0  0  0  0  0  0  0  0  0  0  0
    1.2590   45.4770   53.2610 C   0  0  0  0  0  0  0  0  0  0  0  0
    0.3120   45.7060   52.4580 O   0  0  0  0  0  0  0  0  0  0  0  0
    0.9640   44.6800   54.5170 C   0  0  0  0  0  0  0  0  0  0  0  0
    0.4670   45.6260   55.6390 C   0  0  0  0  0  0  0  0  0  0  0  0
   -0.3440   44.8650   56.6910 C   0  0  0  0  0  0  0  0  0  0  0  0
   -1.6120   44.2290   56.0840 C   0  0  0  0  0  0  0  0  0  0  0  0
   -1.4700   43.8810   54.5890 C   0  0  0  0  0  0  0  0  0  0  0  0
   -0.0240   43.5170   54.2260 C   0  0  0  0  0  0  0  0  0  0  0  0
    3.5520   46.2070   54.0630 C   0  0  0  0  0  0  0  0  0  0  0  0
    4.7310   47.0690   53.6100 C   0  0  0  0  0  0  0  0  0  0  0  0
    7.0950   45.6510   51.0520 N   0  0  0  0  0  0  0  0  0  0  0  0
    7.4730   43.1596   49.7961 H   0  0  0  0  0  0  0  0  0  0  0  0
    7.2803   44.2961   48.4185 H   0  0  0  0  0  0  0  0  0  0  0  0
    8.6244   43.1044   48.4185 H   0  0  0  0  0  0  0  0  0  0  0  0
    9.6939   47.0506   54.7320 H   0  0  0  0  0  0  0  0  0  0  0  0
   10.9645   46.7004   53.5116 H   0  0  0  0  0  0  0  0  0  0  0  0
   10.1338   48.2931   53.5116 H   0  0  0  0  0  0  0  0  0  0  0  0
    7.2914   47.4639   53.9003 H   0  0  0  0  0  0  0  0  0  0  0  0
    4.5831   46.9081   50.3810 H   0  0  0  0  0  0  0  0  0  0  0  0
    4.4139   45.2026   50.9788 H   0  0  0  0  0  0  0  0  0  0  0  0
    2.6835   47.6232   51.6280 H   0  0  0  0  0  0  0  0  0  0  0  0
    2.2044   46.0357   50.9091 H   0  0  0  0  0  0  0  0  0  0  0  0
    1.8922   44.2082   54.8719 H   0  0  0  0  0  0  0  0  0  0  0  0
    1.3364   46.0924   56.1255 H   0  0  0  0  0  0  0  0  0  0  0  0
   -0.1824   46.3897   55.1862 H   0  0  0  0  0  0  0  0  0  0  0  0
    0.2841   44.0696   57.1185 H   0  0  0  0  0  0  0  0  0  0  0  0
   -0.6566   45.5801   57.4662 H   0  0  0  0  0  0  0  0  0  0  0  0
   -1.8368   43.3049   56.6368 H   0  0  0  0  0  0  0  0  0  0  0  0
   -2.4187   44.9721   56.1680 H   0  0  0  0  0  0  0  0  0  0  0  0
   -2.1216   43.0252   54.3587 H   0  0  0  0  0  0  0  0  0  0  0  0
   -1.7587   44.7654   54.0021 H   0  0  0  0  0  0  0  0  0  0  0  0
    0.2789   42.6389   54.8152 H   0  0  0  0  0  0  0  0  0  0  0  0
    0.0107   43.3061   53.1470 H   0  0  0  0  0  0  0  0  0  0  0  0
    3.0509   46.7031   54.9072 H   0  0  0  0  0  0  0  0  0  0  0  0
    3.9408   45.2219   54.3602 H   0  0  0  0  0  0  0  0  0  0  0  0
    4.3955   48.1075   53.4723 H   0  0  0  0  0  0  0  0  0  0  0  0
    5.5232   47.0401   54.3726 H   0  0  0  0  0  0  0  0  0  0  0  0
  1  2  1  0
  2  3  1  0
  3  4  2  0
  4  5  1  0
  5  6  1  0
  5  7  2  0
  7  8  1  0
  8  9  1  0
  9 10  1  0
 10 11  1  0
 11 12  1  0
 12 13  1  0
 13 14  2  0
 13 15  1  0
 15 16  1  0
 16 17  1  0
 17 18  1  0
 18 19  1  0
 19 20  1  0
 12 21  1  0
 21 22  1  0
  8 23  2  0
 23  3  1  0
 22  9  1  0
 20 15  1  0
  1 24  1  0
  1 25  1  0
  1 26  1  0
  6 27  1  0
  6 28  1  0
  6 29  1  0
  7 30  1  0
 10 31  1  0
 10 32  1  0
 11 33  1  0
 11 34  1  0
 15 35  1  0
 16 36  1  0
 16 37  1  0
 17 38  1  0
 17 39  1  0
 18 40  1  0
 18 41  1  0
 19 42  1  0
 19 43  1  0
 20 44  1  0
 20 45  1  0
 21 46  1  0
 21 47  1  0
 22 48  1  0
 22 49  1  0
M  END
>  <meeko>  (5) 
{"is_sidechain": [false], "free_energy": -7.998, "intermolecular_energy": -9.437, "internal_energy": -0.3}

$$$$
