ligand_16_conformer_3_docked
     RDKit          3D

 43 45  0  0  0  0  0  0  0  0999 V2000
    0.5170   45.7350   52.3850 O   0  0  0  0  0  0  0  0  0  0  0  0
    1.4400   45.0600   52.9180 C   0  0  0  0  0  0  0  0  0  0  0  0
    1.1340   44.1680   54.0040 N   0  0  0  0  0  0  0  0  0  0  0  0
   -0.0300   44.2980   54.8400 C   0  0  0  0  0  0  0  0  0  0  0  0
   -1.2460   43.6810   54.5010 C   0  0  0  0  0  0  0  0  0  0  0  0
   -2.3670   43.8390   55.3180 C   0  0  0  0  0  0  0  0  0  0  0  0
   -2.2900   44.6240   56.4700 C   0  0  0  0  0  0  0  0  0  0  0  0
   -1.0960   45.2700   56.8130 C   0  0  0  0  0  0  0  0  0  0  0  0
   -1.0840   46.0510   57.9810 O   0  0  0  0  0  0  0  0  0  0  0  0
   -0.8790   47.4630   58.0460 C   0  0  0  0  0  0  0  0  0  0  0  0
   -0.1670   47.8550   59.3380 C   0  0  0  0  0  0  0  0  0  0  0  0
    1.1530   47.4430   59.3170 F   0  0  0  0  0  0  0  0  0  0  0  0
    0.0340   45.1040   55.9900 C   0  0  0  0  0  0  0  0  0  0  0  0
    2.8190   45.1580   52.3800 C   0  0  0  0  0  0  0  0  0  0  0  0
    3.8780   44.4400   52.9660 C   0  0  0  0  0  0  0  0  0  0  0  0
    5.1750   44.5470   52.4590 C   0  0  0  0  0  0  0  0  0  0  0  0
    5.4450   45.3890   51.3660 C   0  0  0  0  0  0  0  0  0  0  0  0
    6.7670   45.4950   50.8100 N   0  0  0  0  0  0  0  0  0  0  0  0
    7.8970   46.0320   51.5120 C   0  0  0  0  0  0  0  0  0  0  0  0
    9.1590   45.6100   51.2290 N   0  0  0  0  0  0  0  0  0  0  0  0
   10.2300   46.0940   51.9110 C   0  0  0  0  0  0  0  0  0  0  0  0
   10.0420   47.0310   52.9250 C   0  0  0  0  0  0  0  0  0  0  0  0
    8.7420   47.4450   53.2140 C   0  0  0  0  0  0  0  0  0  0  0  0
    7.6980   46.9370   52.5080 N   0  0  0  0  0  0  0  0  0  0  0  0
    4.3900   46.0930   50.7710 C   0  0  0  0  0  0  0  0  0  0  0  0
    3.0910   45.9890   51.2790 C   0  0  0  0  0  0  0  0  0  0  0  0
    1.7270   43.3160   54.1200 H   0  0  0  0  0  0  0  0  0  0  0  0
   -1.3150   43.0710   53.5882 H   0  0  0  0  0  0  0  0  0  0  0  0
   -3.3130   43.3439   55.0535 H   0  0  0  0  0  0  0  0  0  0  0  0
   -3.1749   44.7360   57.1137 H   0  0  0  0  0  0  0  0  0  0  0  0
   -0.2661   47.7771   57.1883 H   0  0  0  0  0  0  0  0  0  0  0  0
   -1.8599   47.9603   58.0224 H   0  0  0  0  0  0  0  0  0  0  0  0
   -0.2015   48.9486   59.4510 H   0  0  0  0  0  0  0  0  0  0  0  0
   -0.6751   47.3661   60.1823 H   0  0  0  0  0  0  0  0  0  0  0  0
    0.9759   45.6097   56.2492 H   0  0  0  0  0  0  0  0  0  0  0  0
    3.6826   43.7889   53.8308 H   0  0  0  0  0  0  0  0  0  0  0  0
    5.9905   43.9687   52.9179 H   0  0  0  0  0  0  0  0  0  0  0  0
    6.8990   45.2420   49.8050 H   0  0  0  0  0  0  0  0  0  0  0  0
   11.2438   45.7466   51.6630 H   0  0  0  0  0  0  0  0  0  0  0  0
   10.8988   47.4347   53.4844 H   0  0  0  0  0  0  0  0  0  0  0  0
    8.5622   48.1810   54.0115 H   0  0  0  0  0  0  0  0  0  0  0  0
    4.5848   46.7325   49.8975 H   0  0  0  0  0  0  0  0  0  0  0  0
    2.2756   46.5620   50.8134 H   0  0  0  0  0  0  0  0  0  0  0  0
  1  2  2  0
  2  3  1  0
  3  4  1  0
  4  5  2  0
  5  6  1  0
  6  7  2  0
  7  8  1  0
  8  9  1  0
  9 10  1  0
 10 11  1  0
 11 12  1  0
  8 13  2  0
  2 14  1  0
 14 15  2  0
 15 16  1  0
 16 17  2  0
 17 18  1  0
 18 19  1  0
 19 20  2  0
 20 21  1  0
 21 22  2  0
 22 23  1  0
 23 24  2  0
 17 25  1  0
 25 26  2  0
 13  4  1  0
 26 14  1  0
 24 19  1  0
  3 27  1  0
  5 28  1  0
  6 29  1  0
  7 30  1  0
 10 31  1  0
 10 32  1  0
 11 33  1  0
 11 34  1  0
 13 35  1  0
 15 36  1  0
 16 37  1  0
 18 38  1  0
 21 39  1  0
 22 40  1  0
 23 41  1  0
 25 42  1  0
 26 43  1  0
M  END
>  <meeko>  (1) 
{"is_sidechain": [false], "free_energy": -7.768, "intermolecular_energy": -10.947, "internal_energy": -0.65}

$$$$
ligand_16_conformer_3_docked
     RDKit          3D

 43 45  0  0  0  0  0  0  0  0999 V2000
    4.1130   43.4170   52.7530 O   0  0  0  0  0  0  0  0  0  0  0  0
    3.7160   44.5760   53.0600 C   0  0  0  0  0  0  0  0  0  0  0  0
    4.3060   45.7210   52.4240 N   0  0  0  0  0  0  0  0  0  0  0  0
    5.6060   45.7110   51.8060 C   0  0  0  0  0  0  0  0  0  0  0  0
    5.8750   44.9130   50.6810 C   0  0  0  0  0  0  0  0  0  0  0  0
    7.1490   44.9040   50.1130 C   0  0  0  0  0  0  0  0  0  0  0  0
    8.1700   45.6770   50.6680 C   0  0  0  0  0  0  0  0  0  0  0  0
    7.9330   46.4590   51.8040 C   0  0  0  0  0  0  0  0  0  0  0  0
    9.0030   47.2110   52.3200 O   0  0  0  0  0  0  0  0  0  0  0  0
    9.9260   46.7810   53.3220 C   0  0  0  0  0  0  0  0  0  0  0  0
    9.6650   47.4930   54.6480 C   0  0  0  0  0  0  0  0  0  0  0  0
   10.7800   47.4380   55.4640 F   0  0  0  0  0  0  0  0  0  0  0  0
    6.6440   46.4700   52.3720 C   0  0  0  0  0  0  0  0  0  0  0  0
    2.6100   44.7330   54.0360 C   0  0  0  0  0  0  0  0  0  0  0  0
    1.3200   44.2490   53.7520 C   0  0  0  0  0  0  0  0  0  0  0  0
    0.2820   44.4110   54.6730 C   0  0  0  0  0  0  0  0  0  0  0  0
    0.5080   45.0750   55.8910 C   0  0  0  0  0  0  0  0  0  0  0  0
   -0.5380   45.2300   56.8660 N   0  0  0  0  0  0  0  0  0  0  0  0
   -0.8780   46.4750   57.4930 C   0  0  0  0  0  0  0  0  0  0  0  0
   -0.2260   46.8930   58.6120 N   0  0  0  0  0  0  0  0  0  0  0  0
   -0.5630   48.0560   59.2280 C   0  0  0  0  0  0  0  0  0  0  0  0
   -1.6000   48.8360   58.7180 C   0  0  0  0  0  0  0  0  0  0  0  0
   -2.2680   48.3890   57.5790 C   0  0  0  0  0  0  0  0  0  0  0  0
   -1.8990   47.2200   56.9920 N   0  0  0  0  0  0  0  0  0  0  0  0
    1.7960   45.5430   56.1830 C   0  0  0  0  0  0  0  0  0  0  0  0
    2.8350   45.3850   55.2610 C   0  0  0  0  0  0  0  0  0  0  0  0
    3.7150   46.5750   52.3040 H   0  0  0  0  0  0  0  0  0  0  0  0
    5.0773   44.2927   50.2464 H   0  0  0  0  0  0  0  0  0  0  0  0
    7.3495   44.2861   49.2253 H   0  0  0  0  0  0  0  0  0  0  0  0
    9.1694   45.6715   50.2085 H   0  0  0  0  0  0  0  0  0  0  0  0
    9.8181   45.6962   53.4688 H   0  0  0  0  0  0  0  0  0  0  0  0
   10.9452   47.0250   52.9877 H   0  0  0  0  0  0  0  0  0  0  0  0
    9.4157   48.5457   54.4488 H   0  0  0  0  0  0  0  0  0  0  0  0
    8.8299   46.9911   55.1587 H   0  0  0  0  0  0  0  0  0  0  0  0
    6.4483   47.0786   53.2672 H   0  0  0  0  0  0  0  0  0  0  0  0
    1.1270   43.7387   52.7968 H   0  0  0  0  0  0  0  0  0  0  0  0
   -0.7187   44.0163   54.4434 H   0  0  0  0  0  0  0  0  0  0  0  0
   -1.0290   44.3710   57.2010 H   0  0  0  0  0  0  0  0  0  0  0  0
   -0.0190   48.3815   60.1270 H   0  0  0  0  0  0  0  0  0  0  0  0
   -1.8843   49.7816   59.2028 H   0  0  0  0  0  0  0  0  0  0  0  0
   -3.0926   48.9815   57.1559 H   0  0  0  0  0  0  0  0  0  0  0  0
    1.9912   46.0387   57.1454 H   0  0  0  0  0  0  0  0  0  0  0  0
    3.8367   45.7740   55.4960 H   0  0  0  0  0  0  0  0  0  0  0  0
  1  2  2  0
  2  3  1  0
  3  4  1  0
  4  5  2  0
  5  6  1  0
  6  7  2  0
  7  8  1  0
  8  9  1  0
  9 10  1  0
 10 11  1  0
 11 12  1  0
  8 13  2  0
  2 14  1  0
 14 15  2  0
 15 16  1  0
 16 17  2  0
 17 18  1  0
 18 19  1  0
 19 20  2  0
 20 21  1  0
 21 22  2  0
 22 23  1  0
 23 24  2  0
 17 25  1  0
 25 26  2  0
 13  4  1  0
 26 14  1  0
 24 19  1  0
  3 27  1  0
  5 28  1  0
  6 29  1  0
  7 30  1  0
 10 31  1  0
 10 32  1  0
 11 33  1  0
 11 34  1  0
 13 35  1  0
 15 36  1  0
 16 37  1  0
 18 38  1  0
 21 39  1  0
 22 40  1  0
 23 41  1  0
 25 42  1  0
 26 43  1  0
M  END
>  <meeko>  (2) 
{"is_sidechain": [false], "free_energy": -7.756, "intermolecular_energy": -11.218, "internal_energy": -0.362}

$$$$
ligand_16_conformer_3_docked
     RDKit          3D

 43 45  0  0  0  0  0  0  0  0999 V2000
    6.1750   40.7840   49.0120 O   0  0  0  0  0  0  0  0  0  0  0  0
    5.2290   41.5640   49.3120 C   0  0  0  0  0  0  0  0  0  0  0  0
    3.8820   41.2210   48.9460 N   0  0  0  0  0  0  0  0  0  0  0  0
    3.5500   40.3070   47.8860 C   0  0  0  0  0  0  0  0  0  0  0  0
    3.0830   39.0100   48.1580 C   0  0  0  0  0  0  0  0  0  0  0  0
    2.7870   38.1340   47.1120 C   0  0  0  0  0  0  0  0  0  0  0  0
    2.9680   38.5380   45.7880 C   0  0  0  0  0  0  0  0  0  0  0  0
    3.4570   39.8150   45.4930 C   0  0  0  0  0  0  0  0  0  0  0  0
    3.6240   40.1600   44.1400 O   0  0  0  0  0  0  0  0  0  0  0  0
    4.5000   39.5190   43.2120 C   0  0  0  0  0  0  0  0  0  0  0  0
    5.8410   40.2450   43.1350 C   0  0  0  0  0  0  0  0  0  0  0  0
    5.7540   41.5030   43.7030 F   0  0  0  0  0  0  0  0  0  0  0  0
    3.7490   40.6990   46.5510 C   0  0  0  0  0  0  0  0  0  0  0  0
    5.5180   42.7980   50.0830 C   0  0  0  0  0  0  0  0  0  0  0  0
    6.5660   43.6580   49.7070 C   0  0  0  0  0  0  0  0  0  0  0  0
    6.8370   44.8130   50.4450 C   0  0  0  0  0  0  0  0  0  0  0  0
    6.0780   45.1230   51.5860 C   0  0  0  0  0  0  0  0  0  0  0  0
    6.3200   46.3180   52.3470 N   0  0  0  0  0  0  0  0  0  0  0  0
    7.5760   46.6440   52.9590 C   0  0  0  0  0  0  0  0  0  0  0  0
    7.6220   47.2630   54.1700 N   0  0  0  0  0  0  0  0  0  0  0  0
    8.8090   47.6000   54.7410 C   0  0  0  0  0  0  0  0  0  0  0  0
   10.0020   47.3200   54.0790 C   0  0  0  0  0  0  0  0  0  0  0  0
    9.9400   46.6980   52.8330 C   0  0  0  0  0  0  0  0  0  0  0  0
    8.7340   46.3760   52.2960 N   0  0  0  0  0  0  0  0  0  0  0  0
    5.0230   44.2760   51.9540 C   0  0  0  0  0  0  0  0  0  0  0  0
    4.7520   43.1180   51.2180 C   0  0  0  0  0  0  0  0  0  0  0  0
    3.1060   41.5660   49.5550 H   0  0  0  0  0  0  0  0  0  0  0  0
    2.9500   38.6833   49.1999 H   0  0  0  0  0  0  0  0  0  0  0  0
    2.4106   37.1240   47.3314 H   0  0  0  0  0  0  0  0  0  0  0  0
    2.7238   37.8456   44.9689 H   0  0  0  0  0  0  0  0  0  0  0  0
    4.6705   38.4817   43.5358 H   0  0  0  0  0  0  0  0  0  0  0  0
    4.0323   39.5398   42.2166 H   0  0  0  0  0  0  0  0  0  0  0  0
    6.5997   39.6583   43.6736 H   0  0  0  0  0  0  0  0  0  0  0  0
    6.1208   40.3555   42.0769 H   0  0  0  0  0  0  0  0  0  0  0  0
    4.1361   41.7047   46.3300 H   0  0  0  0  0  0  0  0  0  0  0  0
    7.1774   43.4190   48.8243 H   0  0  0  0  0  0  0  0  0  0  0  0
    7.6499   45.4841   50.1307 H   0  0  0  0  0  0  0  0  0  0  0  0
    5.5120   46.9530   52.5360 H   0  0  0  0  0  0  0  0  0  0  0  0
    8.8271   48.0930   55.7242 H   0  0  0  0  0  0  0  0  0  0  0  0
   10.9706   47.5835   54.5289 H   0  0  0  0  0  0  0  0  0  0  0  0
   10.8659   46.4682   52.2853 H   0  0  0  0  0  0  0  0  0  0  0  0
    4.4036   44.5242   52.8285 H   0  0  0  0  0  0  0  0  0  0  0  0
    3.9334   42.4525   51.5294 H   0  0  0  0  0  0  0  0  0  0  0  0
  1  2  2  0
  2  3  1  0
  3  4  1  0
  4  5  2  0
  5  6  1  0
  6  7  2  0
  7  8  1  0
  8  9  1  0
  9 10  1  0
 10 11  1  0
 11 12  1  0
  8 13  2  0
  2 14  1  0
 14 15  2  0
 15 16  1  0
 16 17  2  0
 17 18  1  0
 18 19  1  0
 19 20  2  0
 20 21  1  0
 21 22  2  0
 22 23  1  0
 23 24  2  0
 17 25  1  0
 25 26  2  0
 13  4  1  0
 26 14  1  0
 24 19  1  0
  3 27  1  0
  5 28  1  0
  6 29  1  0
  7 30  1  0
 10 31  1  0
 10 32  1  0
 11 33  1  0
 11 34  1  0
 13 35  1  0
 15 36  1  0
 16 37  1  0
 18 38  1  0
 21 39  1  0
 22 40  1  0
 23 41  1  0
 25 42  1  0
 26 43  1  0
M  END
>  <meeko>  (3) 
{"is_sidechain": [false], "free_energy": -7.534, "intermolecular_energy": -10.826, "internal_energy": -0.44}

$$$$
ligand_16_conformer_3_docked
     RDKit          3D

 43 45  0  0  0  0  0  0  0  0999 V2000
    4.7930   44.1110   53.4420 O   0  0  0  0  0  0  0  0  0  0  0  0
    3.9000   44.2020   52.5550 C   0  0  0  0  0  0  0  0  0  0  0  0
    4.2460   44.0030   51.1740 N   0  0  0  0  0  0  0  0  0  0  0  0
    5.5800   44.1560   50.6550 C   0  0  0  0  0  0  0  0  0  0  0  0
    6.1740   43.1600   49.8620 C   0  0  0  0  0  0  0  0  0  0  0  0
    7.4770   43.3220   49.3880 C   0  0  0  0  0  0  0  0  0  0  0  0
    8.2030   44.4700   49.7120 C   0  0  0  0  0  0  0  0  0  0  0  0
    7.6410   45.4630   50.5220 C   0  0  0  0  0  0  0  0  0  0  0  0
    8.4250   46.5920   50.8170 O   0  0  0  0  0  0  0  0  0  0  0  0
    8.6590   47.1350   52.1170 C   0  0  0  0  0  0  0  0  0  0  0  0
    9.9960   46.6540   52.6790 C   0  0  0  0  0  0  0  0  0  0  0  0
   10.3480   47.3820   53.8010 F   0  0  0  0  0  0  0  0  0  0  0  0
    6.3240   45.2990   50.9940 C   0  0  0  0  0  0  0  0  0  0  0  0
    2.4960   44.4600   52.9570 C   0  0  0  0  0  0  0  0  0  0  0  0
    1.4590   44.4600   52.0070 C   0  0  0  0  0  0  0  0  0  0  0  0
    0.1400   44.7150   52.3940 C   0  0  0  0  0  0  0  0  0  0  0  0
   -0.1660   44.9930   53.7370 C   0  0  0  0  0  0  0  0  0  0  0  0
   -1.5180   45.2320   54.1630 N   0  0  0  0  0  0  0  0  0  0  0  0
   -2.0430   44.8390   55.4400 C   0  0  0  0  0  0  0  0  0  0  0  0
   -2.3080   43.5330   55.7140 N   0  0  0  0  0  0  0  0  0  0  0  0
   -2.8320   43.1590   56.9110 C   0  0  0  0  0  0  0  0  0  0  0  0
   -3.1160   44.1230   57.8760 C   0  0  0  0  0  0  0  0  0  0  0  0
   -2.8530   45.4600   57.5760 C   0  0  0  0  0  0  0  0  0  0  0  0
   -2.3270   45.7920   56.3680 N   0  0  0  0  0  0  0  0  0  0  0  0
    0.8630   44.9780   54.6880 C   0  0  0  0  0  0  0  0  0  0  0  0
    2.1830   44.7260   54.3020 C   0  0  0  0  0  0  0  0  0  0  0  0
    3.5140   43.6180   50.5350 H   0  0  0  0  0  0  0  0  0  0  0  0
    5.6101   42.2488   49.6136 H   0  0  0  0  0  0  0  0  0  0  0  0
    7.9327   42.5439   48.7581 H   0  0  0  0  0  0  0  0  0  0  0  0
    9.2258   44.5948   49.3270 H   0  0  0  0  0  0  0  0  0  0  0  0
    8.6705   48.2330   52.0515 H   0  0  0  0  0  0  0  0  0  0  0  0
    7.8552   46.7973   52.7877 H   0  0  0  0  0  0  0  0  0  0  0  0
    9.9116   45.5914   52.9505 H   0  0  0  0  0  0  0  0  0  0  0  0
   10.7714   46.7929   51.9112 H   0  0  0  0  0  0  0  0  0  0  0  0
    5.8739   46.0725   51.6336 H   0  0  0  0  0  0  0  0  0  0  0  0
    1.6877   44.2576   50.9502 H   0  0  0  0  0  0  0  0  0  0  0  0
   -0.6632   44.6979   51.6426 H   0  0  0  0  0  0  0  0  0  0  0  0
   -2.1860   45.6440   53.4730 H   0  0  0  0  0  0  0  0  0  0  0  0
   -3.0315   42.0971   57.1175 H   0  0  0  0  0  0  0  0  0  0  0  0
   -3.5374   43.8369   58.8510 H   0  0  0  0  0  0  0  0  0  0  0  0
   -3.0711   46.2439   58.3162 H   0  0  0  0  0  0  0  0  0  0  0  0
    0.6305   45.1660   55.7466 H   0  0  0  0  0  0  0  0  0  0  0  0
    2.9833   44.7359   55.0566 H   0  0  0  0  0  0  0  0  0  0  0  0
  1  2  2  0
  2  3  1  0
  3  4  1  0
  4  5  2  0
  5  6  1  0
  6  7  2  0
  7  8  1  0
  8  9  1  0
  9 10  1  0
 10 11  1  0
 11 12  1  0
  8 13  2  0
  2 14  1  0
 14 15  2  0
 15 16  1  0
 16 17  2  0
 17 18  1  0
 18 19  1  0
 19 20  2  0
 20 21  1  0
 21 22  2  0
 22 23  1  0
 23 24  2  0
 17 25  1  0
 25 26  2  0
 13  4  1  0
 26 14  1  0
 24 19  1  0
  3 27  1  0
  5 28  1  0
  6 29  1  0
  7 30  1  0
 10 31  1  0
 10 32  1  0
 11 33  1  0
 11 34  1  0
 13 35  1  0
 15 36  1  0
 16 37  1  0
 18 38  1  0
 21 39  1  0
 22 40  1  0
 23 41  1  0
 25 42  1  0
 26 43  1  0
M  END
>  <meeko>  (4) 
{"is_sidechain": [false], "free_energy": -7.519, "intermolecular_energy": -10.751, "internal_energy": -0.495}

$$$$
ligand_16_conformer_3_docked
     RDKit          3D

 43 45  0  0  0  0  0  0  0  0999 V2000
    4.9660   48.0240   53.6510 O   0  0  0  0  0  0  0  0  0  0  0  0
    4.8530   46.8020   53.9500 C   0  0  0  0  0  0  0  0  0  0  0  0
    6.0280   46.0330   54.2540 N   0  0  0  0  0  0  0  0  0  0  0  0
    7.3520   46.3910   53.8170 C   0  0  0  0  0  0  0  0  0  0  0  0
    8.1870   47.2010   54.6040 C   0  0  0  0  0  0  0  0  0  0  0  0
    9.4590   47.5520   54.1500 C   0  0  0  0  0  0  0  0  0  0  0  0
    9.9040   47.1100   52.9020 C   0  0  0  0  0  0  0  0  0  0  0  0
    9.0800   46.3240   52.0890 C   0  0  0  0  0  0  0  0  0  0  0  0
    9.5830   45.9160   50.8420 O   0  0  0  0  0  0  0  0  0  0  0  0
    9.7710   44.5670   50.4120 C   0  0  0  0  0  0  0  0  0  0  0  0
    8.7310   44.1770   49.3640 C   0  0  0  0  0  0  0  0  0  0  0  0
    7.6490   45.0380   49.3980 F   0  0  0  0  0  0  0  0  0  0  0  0
    7.7990   45.9670   52.5540 C   0  0  0  0  0  0  0  0  0  0  0  0
    3.5030   46.1940   54.0340 C   0  0  0  0  0  0  0  0  0  0  0  0
    3.1060   45.4670   55.1710 C   0  0  0  0  0  0  0  0  0  0  0  0
    1.8350   44.8890   55.2370 C   0  0  0  0  0  0  0  0  0  0  0  0
    0.9410   45.0110   54.1600 C   0  0  0  0  0  0  0  0  0  0  0  0
   -0.3810   44.4480   54.2150 N   0  0  0  0  0  0  0  0  0  0  0  0
   -1.2270   44.4890   55.3730 C   0  0  0  0  0  0  0  0  0  0  0  0
   -1.9730   43.4080   55.7310 N   0  0  0  0  0  0  0  0  0  0  0  0
   -2.7980   43.4500   56.8090 C   0  0  0  0  0  0  0  0  0  0  0  0
   -2.8970   44.6190   57.5620 C   0  0  0  0  0  0  0  0  0  0  0  0
   -2.1390   45.7230   57.1760 C   0  0  0  0  0  0  0  0  0  0  0  0
   -1.3240   45.6400   56.0920 N   0  0  0  0  0  0  0  0  0  0  0  0
    1.3280   45.7490   53.0330 C   0  0  0  0  0  0  0  0  0  0  0  0
    2.6000   46.3250   52.9640 C   0  0  0  0  0  0  0  0  0  0  0  0
    5.9330   45.2340   54.9210 H   0  0  0  0  0  0  0  0  0  0  0  0
    7.8366   47.5604   55.5828 H   0  0  0  0  0  0  0  0  0  0  0  0
   10.1122   48.1777   54.7759 H   0  0  0  0  0  0  0  0  0  0  0  0
   10.9117   47.3824   52.5551 H   0  0  0  0  0  0  0  0  0  0  0  0
   10.7761   44.4649   49.9768 H   0  0  0  0  0  0  0  0  0  0  0  0
    9.6584   43.9029   51.2817 H   0  0  0  0  0  0  0  0  0  0  0  0
    9.1924   44.2177   48.3663 H   0  0  0  0  0  0  0  0  0  0  0  0
    8.3768   43.1587   49.5824 H   0  0  0  0  0  0  0  0  0  0  0  0
    7.1424   45.3505   51.9224 H   0  0  0  0  0  0  0  0  0  0  0  0
    3.8017   45.3524   56.0153 H   0  0  0  0  0  0  0  0  0  0  0  0
    1.5328   44.3350   56.1380 H   0  0  0  0  0  0  0  0  0  0  0  0
   -0.7190   43.9040   53.3900 H   0  0  0  0  0  0  0  0  0  0  0  0
   -3.3868   42.5635   57.0873 H   0  0  0  0  0  0  0  0  0  0  0  0
   -3.5577   44.6689   58.4400 H   0  0  0  0  0  0  0  0  0  0  0  0
   -2.2005   46.6604   57.7482 H   0  0  0  0  0  0  0  0  0  0  0  0
    0.6254   45.8760   52.1962 H   0  0  0  0  0  0  0  0  0  0  0  0
    2.8969   46.8854   52.0652 H   0  0  0  0  0  0  0  0  0  0  0  0
  1  2  2  0
  2  3  1  0
  3  4  1  0
  4  5  2  0
  5  6  1  0
  6  7  2  0
  7  8  1  0
  8  9  1  0
  9 10  1  0
 10 11  1  0
 11 12  1  0
  8 13  2  0
  2 14  1  0
 14 15  2  0
 15 16  1  0
 16 17  2  0
 17 18  1  0
 18 19  1  0
 19 20  2  0
 20 21  1  0
 21 22  2  0
 22 23  1  0
 23 24  2  0
 17 25  1  0
 25 26  2  0
 13  4  1  0
 26 14  1  0
 24 19  1  0
  3 27  1  0
  5 28  1  0
  6 29  1  0
  7 30  1  0
 10 31  1  0
 10 32  1  0
 11 33  1  0
 11 34  1  0
 13 35  1  0
 15 36  1  0
 16 37  1  0
 18 38  1  0
 21 39  1  0
 22 40  1  0
 23 41  1  0
 25 42  1  0
 26 43  1  0
M  END
>  <meeko>  (5) 
{"is_sidechain": [false], "free_energy": -7.384, "intermolecular_energy": -10.392, "internal_energy": -0.663}

$$$$
