ligand_52_conformer_4_docked
     RDKit          3D

 43 46  0  0  0  0  0  0  0  0999 V2000
   -2.9890   45.4940   54.9480 C   0  0  0  0  0  0  0  0  0  0  0  0
   -1.9430   44.5650   55.5880 C   0  0  0  0  0  0  0  0  0  0  0  0
   -1.1470   43.7050   54.5810 C   0  0  0  0  0  0  0  0  0  0  0  0
   -0.3220   44.5360   53.7090 N   0  0  0  0  0  0  0  0  0  0  0  0
    0.9330   44.9540   53.9400 C   0  0  0  0  0  0  0  0  0  0  0  0
    1.3080   45.6730   52.8230 C   0  0  0  0  0  0  0  0  0  0  0  0
    2.5960   46.3380   52.5710 C   0  0  0  0  0  0  0  0  0  0  0  0
    2.6680   47.5930   52.6710 O   0  0  0  0  0  0  0  0  0  0  0  0
    3.7640   45.5840   52.2120 N   0  0  0  0  0  0  0  0  0  0  0  0
    5.0460   46.2380   51.9690 C   0  0  2  0  0  0  0  0  0  0  0  0
    5.8370   45.5890   50.8360 C   0  0  0  0  0  0  0  0  0  0  0  0
    6.2520   45.3620   52.2870 C   0  0  1  0  0  0  0  0  0  0  0  0
    7.5160   46.0640   52.7510 C   0  0  0  0  0  0  0  0  0  0  0  0
    7.5940   46.8350   53.9320 C   0  0  0  0  0  0  0  0  0  0  0  0
    8.7950   47.4510   54.2970 C   0  0  0  0  0  0  0  0  0  0  0  0
    9.9300   47.3090   53.4960 C   0  0  0  0  0  0  0  0  0  0  0  0
    9.8660   46.5500   52.3260 C   0  0  0  0  0  0  0  0  0  0  0  0
   10.9680   46.4120   51.5490 F   0  0  0  0  0  0  0  0  0  0  0  0
    8.6680   45.9320   51.9560 C   0  0  0  0  0  0  0  0  0  0  0  0
    0.2780   45.6670   51.9520 N   0  0  0  0  0  0  0  0  0  0  0  0
   -0.6970   44.9690   52.5150 N   0  0  0  0  0  0  0  0  0  0  0  0
   -1.0640   45.2630   56.6120 C   0  0  0  0  0  0  0  0  0  0  0  0
   -1.6000   44.5200   57.6810 O   0  0  0  0  0  0  0  0  0  0  0  0
   -2.4490   43.8130   56.8070 C   0  0  0  0  0  0  0  0  0  0  0  0
   -3.5609   46.0019   55.7386 H   0  0  0  0  0  0  0  0  0  0  0  0
   -2.4806   46.2437   54.3239 H   0  0  0  0  0  0  0  0  0  0  0  0
   -3.6734   44.9006   54.3239 H   0  0  0  0  0  0  0  0  0  0  0  0
   -0.4969   43.0129   55.1363 H   0  0  0  0  0  0  0  0  0  0  0  0
   -1.8627   43.1504   53.9564 H   0  0  0  0  0  0  0  0  0  0  0  0
    1.5394   44.7623   54.8375 H   0  0  0  0  0  0  0  0  0  0  0  0
    3.7350   44.5410   52.2210 H   0  0  0  0  0  0  0  0  0  0  0  0
    4.7410   47.2625   52.2287 H   0  0  0  0  0  0  0  0  0  0  0  0
    5.3930   44.7668   50.2556 H   0  0  0  0  0  0  0  0  0  0  0  0
    6.3422   45.9552   49.9301 H   0  0  0  0  0  0  0  0  0  0  0  0
    6.4236   44.4803   52.9219 H   0  0  0  0  0  0  0  0  0  0  0  0
    6.7044   46.9515   54.5685 H   0  0  0  0  0  0  0  0  0  0  0  0
    8.8459   48.0496   55.2184 H   0  0  0  0  0  0  0  0  0  0  0  0
   10.8733   47.7946   53.7865 H   0  0  0  0  0  0  0  0  0  0  0  0
    8.6262   45.3358   51.0325 H   0  0  0  0  0  0  0  0  0  0  0  0
    0.0113   45.0918   56.4554 H   0  0  0  0  0  0  0  0  0  0  0  0
   -1.0816   46.3615   56.6668 H   0  0  0  0  0  0  0  0  0  0  0  0
   -2.2415   42.7333   56.7729 H   0  0  0  0  0  0  0  0  0  0  0  0
   -3.5297   43.7982   57.0118 H   0  0  0  0  0  0  0  0  0  0  0  0
  1  2  1  0
  2  3  1  0
  3  4  1  0
  4  5  1  0
  5  6  2  0
  6  7  1  0
  7  8  2  0
  7  9  1  0
  9 10  1  0
 10 11  1  0
 11 12  1  0
 12 13  1  0
 13 14  2  0
 14 15  1  0
 15 16  2  0
 16 17  1  0
 17 18  1  0
 17 19  2  0
  6 20  1  0
 20 21  2  0
  2 22  1  0
 22 23  1  0
 23 24  1  0
 24  2  1  0
 21  4  1  0
 12 10  1  0
 19 13  1  0
  1 25  1  0
  1 26  1  0
  1 27  1  0
  3 28  1  0
  3 29  1  0
  5 30  1  0
  9 31  1  0
 10 32  1  6
 11 33  1  0
 11 34  1  0
 12 35  1  1
 14 36  1  0
 15 37  1  0
 16 38  1  0
 19 39  1  0
 22 40  1  0
 22 41  1  0
 24 42  1  0
 24 43  1  0
M  END
>  <meeko>  (1) 
{"is_sidechain": [false], "free_energy": -8.369, "intermolecular_energy": -10.815, "internal_energy": -0.28}

$$$$
ligand_52_conformer_4_docked
     RDKit          3D

 43 46  0  0  0  0  0  0  0  0999 V2000
   -3.1620   43.2690   52.2430 C   0  0  0  0  0  0  0  0  0  0  0  0
   -2.1000   44.1190   51.5240 C   0  0  0  0  0  0  0  0  0  0  0  0
   -1.0170   43.3020   50.7840 C   0  0  0  0  0  0  0  0  0  0  0  0
    0.1950   43.1760   51.5890 N   0  0  0  0  0  0  0  0  0  0  0  0
    1.3980   43.7140   51.3270 C   0  0  0  0  0  0  0  0  0  0  0  0
    2.2120   43.3570   52.3830 C   0  0  0  0  0  0  0  0  0  0  0  0
    3.6290   43.7030   52.5840 C   0  0  0  0  0  0  0  0  0  0  0  0
    4.4400   43.5360   51.6340 O   0  0  0  0  0  0  0  0  0  0  0  0
    4.0960   44.2200   53.8380 N   0  0  0  0  0  0  0  0  0  0  0  0
    5.4990   44.5720   54.0400 C   0  0  2  0  0  0  0  0  0  0  0  0
    5.6980   45.6050   55.1460 C   0  0  0  0  0  0  0  0  0  0  0  0
    5.8260   46.0170   53.6830 C   0  0  1  0  0  0  0  0  0  0  0  0
    7.2290   46.3060   53.1780 C   0  0  0  0  0  0  0  0  0  0  0  0
    7.6240   46.1500   51.8300 C   0  0  0  0  0  0  0  0  0  0  0  0
    8.9340   46.4380   51.4390 C   0  0  0  0  0  0  0  0  0  0  0  0
    9.8670   46.8830   52.3770 C   0  0  0  0  0  0  0  0  0  0  0  0
    9.4910   47.0410   53.7130 C   0  0  0  0  0  0  0  0  0  0  0  0
   10.3970   47.4730   54.6240 F   0  0  0  0  0  0  0  0  0  0  0  0
    8.1820   46.7550   54.1110 C   0  0  0  0  0  0  0  0  0  0  0  0
    1.4840   42.6230   53.2490 N   0  0  0  0  0  0  0  0  0  0  0  0
    0.2630   42.5310   52.7420 N   0  0  0  0  0  0  0  0  0  0  0  0
   -2.6930   45.2360   50.6810 C   0  0  0  0  0  0  0  0  0  0  0  0
   -2.1630   46.2390   51.5160 O   0  0  0  0  0  0  0  0  0  0  0  0
   -1.5690   45.2750   52.3540 C   0  0  0  0  0  0  0  0  0  0  0  0
   -3.0367   43.3693   53.3312 H   0  0  0  0  0  0  0  0  0  0  0  0
   -4.1655   43.6162   51.9559 H   0  0  0  0  0  0  0  0  0  0  0  0
   -3.0430   42.2138   51.9559 H   0  0  0  0  0  0  0  0  0  0  0  0
   -1.4104   42.2975   50.5690 H   0  0  0  0  0  0  0  0  0  0  0  0
   -0.7618   43.8277   49.8520 H   0  0  0  0  0  0  0  0  0  0  0  0
    1.6772   44.3162   50.4498 H   0  0  0  0  0  0  0  0  0  0  0  0
    3.4150   44.4500   54.5960 H   0  0  0  0  0  0  0  0  0  0  0  0
    5.9345   43.5931   53.7910 H   0  0  0  0  0  0  0  0  0  0  0  0
    4.8381   45.9469   55.7407 H   0  0  0  0  0  0  0  0  0  0  0  0
    6.3419   45.6795   56.0347 H   0  0  0  0  0  0  0  0  0  0  0  0
    5.3612   46.7813   53.0429 H   0  0  0  0  0  0  0  0  0  0  0  0
    6.8955   45.7996   51.0840 H   0  0  0  0  0  0  0  0  0  0  0  0
    9.2315   46.3135   50.3873 H   0  0  0  0  0  0  0  0  0  0  0  0
   10.8972   47.1090   52.0645 H   0  0  0  0  0  0  0  0  0  0  0  0
    7.8937   46.8823   55.1649 H   0  0  0  0  0  0  0  0  0  0  0  0
   -2.2988   45.2668   49.6545 H   0  0  0  0  0  0  0  0  0  0  0  0
   -3.7736   45.2310   50.4752 H   0  0  0  0  0  0  0  0  0  0  0  0
   -0.4706   45.3305   52.3757 H   0  0  0  0  0  0  0  0  0  0  0  0
   -1.7874   45.3002   53.4318 H   0  0  0  0  0  0  0  0  0  0  0  0
  1  2  1  0
  2  3  1  0
  3  4  1  0
  4  5  1  0
  5  6  2  0
  6  7  1  0
  7  8  2  0
  7  9  1  0
  9 10  1  0
 10 11  1  0
 11 12  1  0
 12 13  1  0
 13 14  2  0
 14 15  1  0
 15 16  2  0
 16 17  1  0
 17 18  1  0
 17 19  2  0
  6 20  1  0
 20 21  2  0
  2 22  1  0
 22 23  1  0
 23 24  1  0
 24  2  1  0
 21  4  1  0
 12 10  1  0
 19 13  1  0
  1 25  1  0
  1 26  1  0
  1 27  1  0
  3 28  1  0
  3 29  1  0
  5 30  1  0
  9 31  1  0
 10 32  1  1
 11 33  1  0
 11 34  1  0
 12 35  1  6
 14 36  1  0
 15 37  1  0
 16 38  1  0
 19 39  1  0
 22 40  1  0
 22 41  1  0
 24 42  1  0
 24 43  1  0
M  END
>  <meeko>  (2) 
{"is_sidechain": [false], "free_energy": -8.219, "intermolecular_energy": -10.474, "internal_energy": -0.427}

$$$$
ligand_52_conformer_4_docked
     RDKit          3D

 43 46  0  0  0  0  0  0  0  0999 V2000
   -3.0720   43.5680   56.5430 C   0  0  0  0  0  0  0  0  0  0  0  0
   -2.1760   44.7510   56.1380 C   0  0  0  0  0  0  0  0  0  0  0  0
   -1.9800   44.9160   54.6140 C   0  0  0  0  0  0  0  0  0  0  0  0
   -0.7810   44.2220   54.1540 N   0  0  0  0  0  0  0  0  0  0  0  0
    0.4500   44.7410   54.0140 C   0  0  0  0  0  0  0  0  0  0  0  0
    1.2560   43.7020   53.5940 C   0  0  0  0  0  0  0  0  0  0  0  0
    2.6980   43.7420   53.3030 C   0  0  0  0  0  0  0  0  0  0  0  0
    3.1410   43.0960   52.3150 O   0  0  0  0  0  0  0  0  0  0  0  0
    3.6010   44.4990   54.1220 N   0  0  0  0  0  0  0  0  0  0  0  0
    5.0300   44.5480   53.8330 C   0  0  2  0  0  0  0  0  0  0  0  0
    5.8880   44.6420   55.0920 C   0  0  0  0  0  0  0  0  0  0  0  0
    5.6870   45.8710   54.2100 C   0  0  1  0  0  0  0  0  0  0  0  0
    6.8790   46.3150   53.3810 C   0  0  0  0  0  0  0  0  0  0  0  0
    6.8930   46.3160   51.9680 C   0  0  0  0  0  0  0  0  0  0  0  0
    8.0280   46.7410   51.2720 C   0  0  0  0  0  0  0  0  0  0  0  0
    9.1600   47.1700   51.9660 C   0  0  0  0  0  0  0  0  0  0  0  0
    9.1610   47.1730   53.3630 C   0  0  0  0  0  0  0  0  0  0  0  0
   10.2600   47.5890   54.0380 F   0  0  0  0  0  0  0  0  0  0  0  0
    8.0290   46.7490   54.0650 C   0  0  0  0  0  0  0  0  0  0  0  0
    0.4970   42.5910   53.4970 N   0  0  0  0  0  0  0  0  0  0  0  0
   -0.7350   42.9360   53.8440 N   0  0  0  0  0  0  0  0  0  0  0  0
   -2.5350   46.0480   56.8440 C   0  0  0  0  0  0  0  0  0  0  0  0
   -1.3270   46.0680   57.5680 O   0  0  0  0  0  0  0  0  0  0  0  0
   -0.9030   44.8710   56.9590 C   0  0  0  0  0  0  0  0  0  0  0  0
   -3.1207   43.5037   57.6400 H   0  0  0  0  0  0  0  0  0  0  0  0
   -4.0840   43.7195   56.1393 H   0  0  0  0  0  0  0  0  0  0  0  0
   -2.6520   42.6349   56.1393 H   0  0  0  0  0  0  0  0  0  0  0  0
   -2.8557   44.5013   54.0934 H   0  0  0  0  0  0  0  0  0  0  0  0
   -1.8665   45.9876   54.3931 H   0  0  0  0  0  0  0  0  0  0  0  0
    0.7540   45.7822   54.1969 H   0  0  0  0  0  0  0  0  0  0  0  0
    3.2290   45.1100   54.8820 H   0  0  0  0  0  0  0  0  0  0  0  0
    5.0205   43.9140   52.9341 H   0  0  0  0  0  0  0  0  0  0  0  0
    5.4160   44.5938   56.0844 H   0  0  0  0  0  0  0  0  0  0  0  0
    6.7611   44.0978   55.4812 H   0  0  0  0  0  0  0  0  0  0  0  0
    5.3258   46.8976   54.3701 H   0  0  0  0  0  0  0  0  0  0  0  0
    6.0050   45.9802   51.4124 H   0  0  0  0  0  0  0  0  0  0  0  0
    8.0290   46.7373   50.1720 H   0  0  0  0  0  0  0  0  0  0  0  0
   10.0503   47.5053   51.4139 H   0  0  0  0  0  0  0  0  0  0  0  0
    8.0376   46.7548   55.1649 H   0  0  0  0  0  0  0  0  0  0  0  0
   -2.6500   46.9018   56.1600 H   0  0  0  0  0  0  0  0  0  0  0  0
   -3.4857   46.1086   57.3940 H   0  0  0  0  0  0  0  0  0  0  0  0
    0.0035   44.9881   56.3470 H   0  0  0  0  0  0  0  0  0  0  0  0
   -0.6005   44.0278   57.5974 H   0  0  0  0  0  0  0  0  0  0  0  0
  1  2  1  0
  2  3  1  0
  3  4  1  0
  4  5  1  0
  5  6  2  0
  6  7  1  0
  7  8  2  0
  7  9  1  0
  9 10  1  0
 10 11  1  0
 11 12  1  0
 12 13  1  0
 13 14  2  0
 14 15  1  0
 15 16  2  0
 16 17  1  0
 17 18  1  0
 17 19  2  0
  6 20  1  0
 20 21  2  0
  2 22  1  0
 22 23  1  0
 23 24  1  0
 24  2  1  0
 21  4  1  0
 12 10  1  0
 19 13  1  0
  1 25  1  0
  1 26  1  0
  1 27  1  0
  3 28  1  0
  3 29  1  0
  5 30  1  0
  9 31  1  0
 10 32  1  6
 11 33  1  0
 11 34  1  0
 12 35  1  1
 14 36  1  0
 15 37  1  0
 16 38  1  0
 19 39  1  0
 22 40  1  0
 22 41  1  0
 24 42  1  0
 24 43  1  0
M  END
>  <meeko>  (3) 
{"is_sidechain": [false], "free_energy": -8.079, "intermolecular_energy": -10.363, "internal_energy": -0.358}

$$$$
ligand_52_conformer_4_docked
     RDKit          3D

 43 46  0  0  0  0  0  0  0  0999 V2000
   -0.4050   42.1790   52.7520 C   0  0  0  0  0  0  0  0  0  0  0  0
   -1.3840   43.3510   52.5630 C   0  0  0  0  0  0  0  0  0  0  0  0
   -1.4470   44.3330   53.7550 C   0  0  0  0  0  0  0  0  0  0  0  0
   -0.1100   44.6950   54.2150 N   0  0  0  0  0  0  0  0  0  0  0  0
    0.8810   45.2280   53.4810 C   0  0  0  0  0  0  0  0  0  0  0  0
    1.9330   45.4320   54.3520 C   0  0  0  0  0  0  0  0  0  0  0  0
    3.2550   46.0030   54.0490 C   0  0  0  0  0  0  0  0  0  0  0  0
    3.9660   46.4350   54.9960 O   0  0  0  0  0  0  0  0  0  0  0  0
    3.7420   46.0770   52.7010 N   0  0  0  0  0  0  0  0  0  0  0  0
    5.0550   46.6350   52.3960 C   0  0  2  0  0  0  0  0  0  0  0  0
    5.7150   45.9740   51.1890 C   0  0  0  0  0  0  0  0  0  0  0  0
    6.2020   45.6500   52.5980 C   0  0  1  0  0  0  0  0  0  0  0  0
    7.5470   46.2260   53.0020 C   0  0  0  0  0  0  0  0  0  0  0  0
    7.7670   46.9320   54.2060 C   0  0  0  0  0  0  0  0  0  0  0  0
    9.0360   47.4320   54.5120 C   0  0  0  0  0  0  0  0  0  0  0  0
   10.1000   47.2380   53.6290 C   0  0  0  0  0  0  0  0  0  0  0  0
    9.8970   46.5430   52.4350 C   0  0  0  0  0  0  0  0  0  0  0  0
   10.9300   46.3550   51.5780 F   0  0  0  0  0  0  0  0  0  0  0  0
    8.6300   46.0410   52.1240 C   0  0  0  0  0  0  0  0  0  0  0  0
    1.5500   45.0250   55.5790 N   0  0  0  0  0  0  0  0  0  0  0  0
    0.3060   44.5840   55.4670 N   0  0  0  0  0  0  0  0  0  0  0  0
   -1.2410   44.0440   51.2180 C   0  0  0  0  0  0  0  0  0  0  0  0
   -2.5090   43.6100   50.7840 O   0  0  0  0  0  0  0  0  0  0  0  0
   -2.7360   42.9430   52.0030 C   0  0  0  0  0  0  0  0  0  0  0  0
   -0.2534   41.9975   53.8263 H   0  0  0  0  0  0  0  0  0  0  0  0
   -0.8202   41.2751   52.2824 H   0  0  0  0  0  0  0  0  0  0  0  0
    0.5584   42.4266   52.2824 H   0  0  0  0  0  0  0  0  0  0  0  0
   -1.9768   45.2444   53.4409 H   0  0  0  0  0  0  0  0  0  0  0  0
   -1.9776   43.8403   54.5831 H   0  0  0  0  0  0  0  0  0  0  0  0
    0.8589   45.4556   52.4050 H   0  0  0  0  0  0  0  0  0  0  0  0
    3.2000   45.6350   51.9250 H   0  0  0  0  0  0  0  0  0  0  0  0
    4.8538   47.6687   52.7138 H   0  0  0  0  0  0  0  0  0  0  0  0
    5.1673   45.2169   50.6086 H   0  0  0  0  0  0  0  0  0  0  0  0
    6.1903   46.3376   50.2660 H   0  0  0  0  0  0  0  0  0  0  0  0
    6.3396   44.7300   53.1851 H   0  0  0  0  0  0  0  0  0  0  0  0
    6.9342   47.0892   54.9072 H   0  0  0  0  0  0  0  0  0  0  0  0
    9.1969   47.9803   55.4519 H   0  0  0  0  0  0  0  0  0  0  0  0
   11.0973   47.6323   53.8737 H   0  0  0  0  0  0  0  0  0  0  0  0
    8.4782   45.4948   51.1813 H   0  0  0  0  0  0  0  0  0  0  0  0
   -1.1550   45.1379   51.2955 H   0  0  0  0  0  0  0  0  0  0  0  0
   -0.3611   43.8227   50.5961 H   0  0  0  0  0  0  0  0  0  0  0  0
   -3.5860   43.3475   52.5720 H   0  0  0  0  0  0  0  0  0  0  0  0
   -3.0036   41.8762   51.9836 H   0  0  0  0  0  0  0  0  0  0  0  0
  1  2  1  0
  2  3  1  0
  3  4  1  0
  4  5  1  0
  5  6  2  0
  6  7  1  0
  7  8  2  0
  7  9  1  0
  9 10  1  0
 10 11  1  0
 11 12  1  0
 12 13  1  0
 13 14  2  0
 14 15  1  0
 15 16  2  0
 16 17  1  0
 17 18  1  0
 17 19  2  0
  6 20  1  0
 20 21  2  0
  2 22  1  0
 22 23  1  0
 23 24  1  0
 24  2  1  0
 21  4  1  0
 12 10  1  0
 19 13  1  0
  1 25  1  0
  1 26  1  0
  1 27  1  0
  3 28  1  0
  3 29  1  0
  5 30  1  0
  9 31  1  0
 10 32  1  6
 11 33  1  0
 11 34  1  0
 12 35  1  1
 14 36  1  0
 15 37  1  0
 16 38  1  0
 19 39  1  0
 22 40  1  0
 22 41  1  0
 24 42  1  0
 24 43  1  0
M  END
>  <meeko>  (4) 
{"is_sidechain": [false], "free_energy": -7.944, "intermolecular_energy": -10.275, "internal_energy": -0.271}

$$$$
ligand_52_conformer_4_docked
     RDKit          3D

 43 46  0  0  0  0  0  0  0  0999 V2000
    4.5540   41.6830   44.8220 C   0  0  0  0  0  0  0  0  0  0  0  0
    3.3520   40.7850   45.1620 C   0  0  0  0  0  0  0  0  0  0  0  0
    3.6650   39.6420   46.1530 C   0  0  0  0  0  0  0  0  0  0  0  0
    3.8560   40.1510   47.5080 N   0  0  0  0  0  0  0  0  0  0  0  0
    4.7660   41.0540   47.9110 C   0  0  0  0  0  0  0  0  0  0  0  0
    4.5390   41.2480   49.2590 C   0  0  0  0  0  0  0  0  0  0  0  0
    5.2600   42.1470   50.1740 C   0  0  0  0  0  0  0  0  0  0  0  0
    6.4540   41.8800   50.4790 O   0  0  0  0  0  0  0  0  0  0  0  0
    4.6290   43.3130   50.7220 N   0  0  0  0  0  0  0  0  0  0  0  0
    5.3430   44.2120   51.6230 C   0  0  2  0  0  0  0  0  0  0  0  0
    4.5930   45.5170   51.8760 C   0  0  0  0  0  0  0  0  0  0  0  0
    5.8120   45.5010   50.9580 C   0  0  1  0  0  0  0  0  0  0  0  0
    7.0800   46.1390   51.5000 C   0  0  0  0  0  0  0  0  0  0  0  0
    7.0880   47.2860   52.3240 C   0  0  0  0  0  0  0  0  0  0  0  0
    8.2960   47.8160   52.7860 C   0  0  0  0  0  0  0  0  0  0  0  0
    9.5070   47.2160   52.4380 C   0  0  0  0  0  0  0  0  0  0  0  0
    9.5140   46.0820   51.6230 C   0  0  0  0  0  0  0  0  0  0  0  0
   10.6900   45.4990   51.2850 F   0  0  0  0  0  0  0  0  0  0  0  0
    8.3090   45.5470   51.1580 C   0  0  0  0  0  0  0  0  0  0  0  0
    3.5030   40.4670   49.6290 N   0  0  0  0  0  0  0  0  0  0  0  0
    3.1070   39.8140   48.5470 N   0  0  0  0  0  0  0  0  0  0  0  0
    2.1000   41.5670   45.5210 C   0  0  0  0  0  0  0  0  0  0  0  0
    1.4170   41.1360   44.3670 O   0  0  0  0  0  0  0  0  0  0  0  0
    2.5270   40.3730   43.9550 C   0  0  0  0  0  0  0  0  0  0  0  0
    5.0241   42.0342   45.7524 H   0  0  0  0  0  0  0  0  0  0  0  0
    5.2862   41.1089   44.2352 H   0  0  0  0  0  0  0  0  0  0  0  0
    4.2111   42.5480   44.2352 H   0  0  0  0  0  0  0  0  0  0  0  0
    2.8276   38.9287   46.1531 H   0  0  0  0  0  0  0  0  0  0  0  0
    4.5955   39.1504   45.8328 H   0  0  0  0  0  0  0  0  0  0  0  0
    5.5352   41.5398   47.2927 H   0  0  0  0  0  0  0  0  0  0  0  0
    3.6750   43.5910   50.4000 H   0  0  0  0  0  0  0  0  0  0  0  0
    5.8191   43.4447   52.2511 H   0  0  0  0  0  0  0  0  0  0  0  0
    3.5881   45.6649   51.4537 H   0  0  0  0  0  0  0  0  0  0  0  0
    4.3002   46.0854   52.7711 H   0  0  0  0  0  0  0  0  0  0  0  0
    6.0141   45.8096   49.9217 H   0  0  0  0  0  0  0  0  0  0  0  0
    6.1381   47.7650   52.6038 H   0  0  0  0  0  0  0  0  0  0  0  0
    8.2922   48.7101   53.4268 H   0  0  0  0  0  0  0  0  0  0  0  0
   10.4550   47.6359   52.8053 H   0  0  0  0  0  0  0  0  0  0  0  0
    8.3223   44.6529   50.5174 H   0  0  0  0  0  0  0  0  0  0  0  0
    1.6296   41.2347   46.4582 H   0  0  0  0  0  0  0  0  0  0  0  0
    2.1849   42.6461   45.7167 H   0  0  0  0  0  0  0  0  0  0  0  0
    2.3240   39.2928   43.9112 H   0  0  0  0  0  0  0  0  0  0  0  0
    2.9397   40.5355   42.9484 H   0  0  0  0  0  0  0  0  0  0  0  0
  1  2  1  0
  2  3  1  0
  3  4  1  0
  4  5  1  0
  5  6  2  0
  6  7  1  0
  7  8  2  0
  7  9  1  0
  9 10  1  0
 10 11  1  0
 11 12  1  0
 12 13  1  0
 13 14  2  0
 14 15  1  0
 15 16  2  0
 16 17  1  0
 17 18  1  0
 17 19  2  0
  6 20  1  0
 20 21  2  0
  2 22  1  0
 22 23  1  0
 23 24  1  0
 24  2  1  0
 21  4  1  0
 12 10  1  0
 19 13  1  0
  1 25  1  0
  1 26  1  0
  1 27  1  0
  3 28  1  0
  3 29  1  0
  5 30  1  0
  9 31  1  0
 10 32  1  1
 11 33  1  0
 11 34  1  0
 12 35  1  6
 14 36  1  0
 15 37  1  0
 16 38  1  0
 19 39  1  0
 22 40  1  0
 22 41  1  0
 24 42  1  0
 24 43  1  0
M  END
>  <meeko>  (5) 
{"is_sidechain": [false], "free_energy": -7.727, "intermolecular_energy": -10.002, "internal_energy": -0.263}

$$$$
