ligand_60_conformer_1_docked
     RDKit          3D

 44 47  0  0  0  0  0  0  0  0999 V2000
   -1.9890   42.6380   51.6230 C   0  0  0  0  0  0  0  0  0  0  0  0
   -0.9850   43.4380   52.4610 C   0  0  2  0  0  0  0  0  0  0  0  0
    0.3900   42.7300   52.4940 C   0  0  0  0  0  0  0  0  0  0  0  0
    1.2570   43.1130   53.7160 C   0  0  0  0  0  0  0  0  0  0  0  0
    0.9170   44.5100   54.3040 C   0  0  1  0  0  0  0  0  0  0  0  0
    1.8260   44.7930   55.5230 C   0  0  0  0  0  0  0  0  0  0  0  0
    3.0470   45.5180   54.9760 C   0  0  0  0  0  0  0  0  0  0  0  0
    2.6220   46.0930   53.7120 N   0  0  0  0  0  0  0  0  0  0  0  0
    3.4580   46.9870   52.9520 C   0  0  0  0  0  0  0  0  0  0  0  0
    2.9410   47.9980   52.4050 O   0  0  0  0  0  0  0  0  0  0  0  0
    4.9080   46.7560   52.7830 C   0  0  0  0  0  0  0  0  0  0  0  0
    5.4970   46.0790   51.7300 C   0  0  0  0  0  0  0  0  0  0  0  0
    6.8530   46.0990   51.9760 C   0  0  0  0  0  0  0  0  0  0  0  0
    7.0050   46.7870   53.1650 C   0  0  0  0  0  0  0  0  0  0  0  0
    8.2740   47.0710   53.8400 C   0  0  0  0  0  0  0  0  0  0  0  0
    8.3980   47.8320   54.9440 N   0  0  0  0  0  0  0  0  0  0  0  0
    9.6930   47.8250   55.2150 N   0  0  0  0  0  0  0  0  0  0  0  0
   10.3200   47.0910   54.3110 N   0  0  0  0  0  0  0  0  0  0  0  0
    9.4670   46.5990   53.4310 N   0  0  0  0  0  0  0  0  0  0  0  0
    5.8340   47.1630   53.6210 O   0  0  0  0  0  0  0  0  0  0  0  0
    1.3030   45.6300   53.3050 C   0  0  0  0  0  0  0  0  0  0  0  0
   -0.5880   44.5620   54.7230 C   0  0  0  0  0  0  0  0  0  0  0  0
   -1.5200   43.6610   53.8830 C   0  0  0  0  0  0  0  0  0  0  0  0
   -2.6725   42.0934   52.2910 H   0  0  0  0  0  0  0  0  0  0  0  0
   -2.5672   43.3257   50.9884 H   0  0  0  0  0  0  0  0  0  0  0  0
   -1.4478   41.9209   50.9884 H   0  0  0  0  0  0  0  0  0  0  0  0
   -0.8500   44.4221   51.9883 H   0  0  0  0  0  0  0  0  0  0  0  0
    0.2207   41.6433   52.5152 H   0  0  0  0  0  0  0  0  0  0  0  0
    0.9390   43.0517   51.5967 H   0  0  0  0  0  0  0  0  0  0  0  0
    1.1043   42.3582   54.5014 H   0  0  0  0  0  0  0  0  0  0  0  0
    2.3011   43.1523   53.3722 H   0  0  0  0  0  0  0  0  0  0  0  0
    1.3005   45.4264   56.2529 H   0  0  0  0  0  0  0  0  0  0  0  0
    2.1072   43.8639   56.0404 H   0  0  0  0  0  0  0  0  0  0  0  0
    3.3674   46.3091   55.6699 H   0  0  0  0  0  0  0  0  0  0  0  0
    3.9024   44.8383   54.8484 H   0  0  0  0  0  0  0  0  0  0  0  0
    4.9869   45.6184   50.8711 H   0  0  0  0  0  0  0  0  0  0  0  0
    7.6480   45.6593   51.3557 H   0  0  0  0  0  0  0  0  0  0  0  0
   11.3490   46.9220   54.2970 H   0  0  0  0  0  0  0  0  0  0  0  0
    0.5762   46.4542   53.3552 H   0  0  0  0  0  0  0  0  0  0  0  0
    1.3071   45.2618   52.2685 H   0  0  0  0  0  0  0  0  0  0  0  0
   -0.6627   44.2475   55.7744 H   0  0  0  0  0  0  0  0  0  0  0  0
   -0.9224   45.5969   54.5579 H   0  0  0  0  0  0  0  0  0  0  0  0
   -1.6146   42.6857   54.3828 H   0  0  0  0  0  0  0  0  0  0  0  0
   -2.4940   44.1657   53.8018 H   0  0  0  0  0  0  0  0  0  0  0  0
  1  2  1  0
  2  3  1  0
  3  4  1  0
  5  4  1  1
  5  6  1  0
  6  7  1  0
  7  8  1  0
  8  9  1  0
  9 10  2  0
  9 11  1  0
 11 12  2  0
 12 13  1  0
 13 14  2  0
 14 15  1  0
 15 16  1  0
 16 17  2  0
 17 18  1  0
 18 19  1  0
 14 20  1  0
  8 21  1  0
  5 22  1  0
 22 23  1  0
 23  2  1  0
 21  5  1  0
 20 11  1  0
 19 15  2  0
  1 24  1  0
  1 25  1  0
  1 26  1  0
  2 27  1  1
  3 28  1  0
  3 29  1  0
  4 30  1  0
  4 31  1  0
  6 32  1  0
  6 33  1  0
  7 34  1  0
  7 35  1  0
 12 36  1  0
 13 37  1  0
 18 38  1  0
 21 39  1  0
 21 40  1  0
 22 41  1  0
 22 42  1  0
 23 43  1  0
 23 44  1  0
M  END
>  <meeko>  (1) 
{"is_sidechain": [false], "free_energy": -8.728, "intermolecular_energy": -10.259, "internal_energy": -0.421}

$$$$
ligand_60_conformer_1_docked
     RDKit          3D

 44 47  0  0  0  0  0  0  0  0999 V2000
   10.3560   46.3510   52.3040 C   0  0  0  0  0  0  0  0  0  0  0  0
    8.8830   46.2440   52.7140 C   0  0  2  0  0  0  0  0  0  0  0  0
    7.9600   46.7690   51.5880 C   0  0  0  0  0  0  0  0  0  0  0  0
    6.5720   47.2310   52.0880 C   0  0  0  0  0  0  0  0  0  0  0  0
    6.1270   46.5430   53.4090 C   0  0  1  0  0  0  0  0  0  0  0  0
    4.7390   47.0790   53.8280 C   0  0  0  0  0  0  0  0  0  0  0  0
    3.7200   46.1380   53.2040 C   0  0  0  0  0  0  0  0  0  0  0  0
    4.4370   44.9000   52.9550 N   0  0  0  0  0  0  0  0  0  0  0  0
    3.7760   43.7040   52.5010 C   0  0  0  0  0  0  0  0  0  0  0  0
    2.7370   43.3100   53.0960 O   0  0  0  0  0  0  0  0  0  0  0  0
    4.2790   42.9120   51.3580 C   0  0  0  0  0  0  0  0  0  0  0  0
    5.5710   42.9470   50.8640 C   0  0  0  0  0  0  0  0  0  0  0  0
    5.5960   42.0620   49.8060 C   0  0  0  0  0  0  0  0  0  0  0  0
    4.3180   41.5450   49.7230 C   0  0  0  0  0  0  0  0  0  0  0  0
    3.8500   40.5550   48.7490 C   0  0  0  0  0  0  0  0  0  0  0  0
    3.1110   39.4720   49.0560 N   0  0  0  0  0  0  0  0  0  0  0  0
    2.9110   38.8610   47.8990 N   0  0  0  0  0  0  0  0  0  0  0  0
    3.5050   39.5500   46.9390 N   0  0  0  0  0  0  0  0  0  0  0  0
    4.1050   40.6200   47.4290 N   0  0  0  0  0  0  0  0  0  0  0  0
    3.5580   42.0690   50.6550 O   0  0  0  0  0  0  0  0  0  0  0  0
    5.8700   45.0330   53.1760 C   0  0  0  0  0  0  0  0  0  0  0  0
    7.1790   46.8140   54.5330 C   0  0  0  0  0  0  0  0  0  0  0  0
    8.6260   46.9960   54.0280 C   0  0  0  0  0  0  0  0  0  0  0  0
   10.9851   46.3967   53.2052 H   0  0  0  0  0  0  0  0  0  0  0  0
   10.6351   45.4708   51.7063 H   0  0  0  0  0  0  0  0  0  0  0  0
   10.5050   47.2623   51.7063 H   0  0  0  0  0  0  0  0  0  0  0  0
    8.6498   45.1817   52.8787 H   0  0  0  0  0  0  0  0  0  0  0  0
    8.4558   47.6221   51.1018 H   0  0  0  0  0  0  0  0  0  0  0  0
    7.7901   45.9320   50.8947 H   0  0  0  0  0  0  0  0  0  0  0  0
    6.6066   48.3175   52.2561 H   0  0  0  0  0  0  0  0  0  0  0  0
    5.8407   46.9509   51.3156 H   0  0  0  0  0  0  0  0  0  0  0  0
    4.6425   47.0746   54.9237 H   0  0  0  0  0  0  0  0  0  0  0  0
    4.5891   48.1155   53.4915 H   0  0  0  0  0  0  0  0  0  0  0  0
    2.8825   45.9648   53.8958 H   0  0  0  0  0  0  0  0  0  0  0  0
    3.2917   46.5545   52.2804 H   0  0  0  0  0  0  0  0  0  0  0  0
    6.4071   43.5559   51.2383 H   0  0  0  0  0  0  0  0  0  0  0  0
    6.4546   41.8189   49.1628 H   0  0  0  0  0  0  0  0  0  0  0  0
    3.4990   39.2840   45.9300 H   0  0  0  0  0  0  0  0  0  0  0  0
    6.1763   44.4524   54.0587 H   0  0  0  0  0  0  0  0  0  0  0  0
    6.4470   44.6532   52.3200 H   0  0  0  0  0  0  0  0  0  0  0  0
    6.8837   47.7300   55.0657 H   0  0  0  0  0  0  0  0  0  0  0  0
    7.1834   45.9226   55.1775 H   0  0  0  0  0  0  0  0  0  0  0  0
    8.8115   48.0678   53.8644 H   0  0  0  0  0  0  0  0  0  0  0  0
    9.3031   46.5832   54.7903 H   0  0  0  0  0  0  0  0  0  0  0  0
  1  2  1  0
  2  3  1  0
  3  4  1  0
  5  4  1  1
  5  6  1  0
  6  7  1  0
  7  8  1  0
  8  9  1  0
  9 10  2  0
  9 11  1  0
 11 12  2  0
 12 13  1  0
 13 14  2  0
 14 15  1  0
 15 16  1  0
 16 17  2  0
 17 18  1  0
 18 19  1  0
 14 20  1  0
  8 21  1  0
  5 22  1  0
 22 23  1  0
 23  2  1  0
 21  5  1  0
 20 11  1  0
 19 15  2  0
  1 24  1  0
  1 25  1  0
  1 26  1  0
  2 27  1  6
  3 28  1  0
  3 29  1  0
  4 30  1  0
  4 31  1  0
  6 32  1  0
  6 33  1  0
  7 34  1  0
  7 35  1  0
 12 36  1  0
 13 37  1  0
 18 38  1  0
 21 39  1  0
 21 40  1  0
 22 41  1  0
 22 42  1  0
 23 43  1  0
 23 44  1  0
M  END
>  <meeko>  (2) 
{"is_sidechain": [false], "free_energy": -8.71, "intermolecular_energy": -10.529, "internal_energy": -0.128}

$$$$
ligand_60_conformer_1_docked
     RDKit          3D

 44 47  0  0  0  0  0  0  0  0999 V2000
   10.6560   45.9490   51.5780 C   0  0  0  0  0  0  0  0  0  0  0  0
    9.3810   46.1750   52.3990 C   0  0  2  0  0  0  0  0  0  0  0  0
    8.2830   46.8410   51.5370 C   0  0  0  0  0  0  0  0  0  0  0  0
    7.2240   47.6070   52.3620 C   0  0  0  0  0  0  0  0  0  0  0  0
    7.0710   47.0810   53.8160 C   0  0  1  0  0  0  0  0  0  0  0  0
    6.0030   47.9160   54.5590 C   0  0  0  0  0  0  0  0  0  0  0  0
    4.6820   47.1910   54.3470 C   0  0  0  0  0  0  0  0  0  0  0  0
    5.0400   45.8200   54.0290 N   0  0  0  0  0  0  0  0  0  0  0  0
    4.0560   44.7760   53.9030 C   0  0  0  0  0  0  0  0  0  0  0  0
    3.1550   44.6690   54.7790 O   0  0  0  0  0  0  0  0  0  0  0  0
    4.0670   43.8150   52.7800 C   0  0  0  0  0  0  0  0  0  0  0  0
    3.1500   42.7970   52.5840 C   0  0  0  0  0  0  0  0  0  0  0  0
    3.5390   42.1540   51.4280 C   0  0  0  0  0  0  0  0  0  0  0  0
    4.6680   42.8190   50.9930 C   0  0  0  0  0  0  0  0  0  0  0  0
    5.4470   42.5020   49.7930 C   0  0  0  0  0  0  0  0  0  0  0  0
    6.4630   43.2510   49.3220 N   0  0  0  0  0  0  0  0  0  0  0  0
    6.8800   42.6120   48.2410 N   0  0  0  0  0  0  0  0  0  0  0  0
    6.1460   41.5250   48.0720 N   0  0  0  0  0  0  0  0  0  0  0  0
    5.2360   41.4180   49.0230 N   0  0  0  0  0  0  0  0  0  0  0  0
    4.9590   43.7990   51.8160 O   0  0  0  0  0  0  0  0  0  0  0  0
    6.4700   45.6530   53.8180 C   0  0  0  0  0  0  0  0  0  0  0  0
    8.4430   47.1640   54.5620 C   0  0  0  0  0  0  0  0  0  0  0  0
    9.6790   47.0140   53.6500 C   0  0  0  0  0  0  0  0  0  0  0  0
   11.5077   45.7980   52.2575 H   0  0  0  0  0  0  0  0  0  0  0  0
   10.5308   45.0591   50.9437 H   0  0  0  0  0  0  0  0  0  0  0  0
   10.8443   46.8278   50.9437 H   0  0  0  0  0  0  0  0  0  0  0  0
    9.0076   45.1940   52.7278 H   0  0  0  0  0  0  0  0  0  0  0  0
    8.7651   47.5496   50.8475 H   0  0  0  0  0  0  0  0  0  0  0  0
    7.7557   46.0333   51.0083 H   0  0  0  0  0  0  0  0  0  0  0  0
    7.5154   48.6669   52.4041 H   0  0  0  0  0  0  0  0  0  0  0  0
    6.2556   47.4599   51.8614 H   0  0  0  0  0  0  0  0  0  0  0  0
    6.2401   47.9726   55.6316 H   0  0  0  0  0  0  0  0  0  0  0  0
    5.9620   48.9476   54.1793 H   0  0  0  0  0  0  0  0  0  0  0  0
    4.0723   47.2270   55.2619 H   0  0  0  0  0  0  0  0  0  0  0  0
    4.0857   47.6537   53.5468 H   0  0  0  0  0  0  0  0  0  0  0  0
    2.2872   42.5511   53.2204 H   0  0  0  0  0  0  0  0  0  0  0  0
    3.0513   41.2908   50.9515 H   0  0  0  0  0  0  0  0  0  0  0  0
    6.2700   40.8430   47.2920 H   0  0  0  0  0  0  0  0  0  0  0  0
    6.9089   45.0547   54.6301 H   0  0  0  0  0  0  0  0  0  0  0  0
    6.6794   45.1264   52.8752 H   0  0  0  0  0  0  0  0  0  0  0  0
    8.5027   48.1414   55.0632 H   0  0  0  0  0  0  0  0  0  0  0  0
    8.4684   46.3176   55.2641 H   0  0  0  0  0  0  0  0  0  0  0  0
   10.0095   48.0146   53.3345 H   0  0  0  0  0  0  0  0  0  0  0  0
   10.4607   46.4957   54.2247 H   0  0  0  0  0  0  0  0  0  0  0  0
  1  2  1  0
  2  3  1  0
  3  4  1  0
  5  4  1  1
  5  6  1  0
  6  7  1  0
  7  8  1  0
  8  9  1  0
  9 10  2  0
  9 11  1  0
 11 12  2  0
 12 13  1  0
 13 14  2  0
 14 15  1  0
 15 16  1  0
 16 17  2  0
 17 18  1  0
 18 19  1  0
 14 20  1  0
  8 21  1  0
  5 22  1  0
 22 23  1  0
 23  2  1  0
 21  5  1  0
 20 11  1  0
 19 15  2  0
  1 24  1  0
  1 25  1  0
  1 26  1  0
  2 27  1  6
  3 28  1  0
  3 29  1  0
  4 30  1  0
  4 31  1  0
  6 32  1  0
  6 33  1  0
  7 34  1  0
  7 35  1  0
 12 36  1  0
 13 37  1  0
 18 38  1  0
 21 39  1  0
 21 40  1  0
 22 41  1  0
 22 42  1  0
 23 43  1  0
 23 44  1  0
M  END
>  <meeko>  (3) 
{"is_sidechain": [false], "free_energy": -8.605, "intermolecular_energy": -10.158, "internal_energy": -0.376}

$$$$
ligand_60_conformer_1_docked
     RDKit          3D

 44 47  0  0  0  0  0  0  0  0999 V2000
    7.5360   47.5930   52.2890 C   0  0  0  0  0  0  0  0  0  0  0  0
    6.3670   46.6090   52.1700 C   0  0  2  0  0  0  0  0  0  0  0  0
    6.1010   45.9060   53.5220 C   0  0  0  0  0  0  0  0  0  0  0  0
    5.3770   44.5470   53.3840 C   0  0  0  0  0  0  0  0  0  0  0  0
    4.5240   44.4270   52.0910 C   0  0  1  0  0  0  0  0  0  0  0  0
    3.8530   43.0350   52.0420 C   0  0  0  0  0  0  0  0  0  0  0  0
    2.4960   43.1980   52.7090 C   0  0  0  0  0  0  0  0  0  0  0  0
    2.1900   44.6150   52.6220 N   0  0  0  0  0  0  0  0  0  0  0  0
    0.9130   45.1540   53.0140 C   0  0  0  0  0  0  0  0  0  0  0  0
    0.1600   45.6560   52.1370 O   0  0  0  0  0  0  0  0  0  0  0  0
    0.4530   45.1450   54.4200 C   0  0  0  0  0  0  0  0  0  0  0  0
   -0.4870   44.2800   54.9510 C   0  0  0  0  0  0  0  0  0  0  0  0
   -0.6100   44.6250   56.2810 C   0  0  0  0  0  0  0  0  0  0  0  0
    0.2620   45.6790   56.4750 C   0  0  0  0  0  0  0  0  0  0  0  0
    0.4880   46.3900   57.7360 C   0  0  0  0  0  0  0  0  0  0  0  0
   -0.4590   47.0690   58.4100 N   0  0  0  0  0  0  0  0  0  0  0  0
    0.1640   47.5470   59.4760 N   0  0  0  0  0  0  0  0  0  0  0  0
    1.4300   47.1700   59.4420 N   0  0  0  0  0  0  0  0  0  0  0  0
    1.6760   46.4420   58.3670 N   0  0  0  0  0  0  0  0  0  0  0  0
    0.8780   45.9670   55.3520 O   0  0  0  0  0  0  0  0  0  0  0  0
    3.3180   45.4000   52.1420 C   0  0  0  0  0  0  0  0  0  0  0  0
    5.4260   44.6430   50.8330 C   0  0  0  0  0  0  0  0  0  0  0  0
    6.6320   45.5800   51.0610 C   0  0  0  0  0  0  0  0  0  0  0  0
    7.7541   47.7766   53.3514 H   0  0  0  0  0  0  0  0  0  0  0  0
    8.4249   47.1672   51.8005 H   0  0  0  0  0  0  0  0  0  0  0  0
    7.2681   48.5415   51.8005 H   0  0  0  0  0  0  0  0  0  0  0  0
    5.4658   47.1785   51.8989 H   0  0  0  0  0  0  0  0  0  0  0  0
    7.0665   45.7360   54.0209 H   0  0  0  0  0  0  0  0  0  0  0  0
    5.4390   46.5654   54.1024 H   0  0  0  0  0  0  0  0  0  0  0  0
    6.1337   43.7486   53.3771 H   0  0  0  0  0  0  0  0  0  0  0  0
    4.6866   44.4606   54.2360 H   0  0  0  0  0  0  0  0  0  0  0  0
    3.7291   42.7073   50.9993 H   0  0  0  0  0  0  0  0  0  0  0  0
    4.4637   42.2760   52.5529 H   0  0  0  0  0  0  0  0  0  0  0  0
    1.7339   42.6067   52.1802 H   0  0  0  0  0  0  0  0  0  0  0  0
    2.5079   42.8458   53.7510 H   0  0  0  0  0  0  0  0  0  0  0  0
   -1.0260   43.4808   54.4212 H   0  0  0  0  0  0  0  0  0  0  0  0
   -1.2657   44.1582   57.0308 H   0  0  0  0  0  0  0  0  0  0  0  0
    2.1400   47.4140   60.1670 H   0  0  0  0  0  0  0  0  0  0  0  0
    3.1065   45.7997   51.1392 H   0  0  0  0  0  0  0  0  0  0  0  0
    3.5203   46.2587   52.7990 H   0  0  0  0  0  0  0  0  0  0  0  0
    5.8087   43.6627   50.5126 H   0  0  0  0  0  0  0  0  0  0  0  0
    4.7933   45.1275   50.0748 H   0  0  0  0  0  0  0  0  0  0  0  0
    7.5043   44.9721   51.3431 H   0  0  0  0  0  0  0  0  0  0  0  0
    6.8127   46.1307   50.1261 H   0  0  0  0  0  0  0  0  0  0  0  0
  1  2  1  0
  2  3  1  0
  3  4  1  0
  5  4  1  6
  5  6  1  0
  6  7  1  0
  7  8  1  0
  8  9  1  0
  9 10  2  0
  9 11  1  0
 11 12  2  0
 12 13  1  0
 13 14  2  0
 14 15  1  0
 15 16  1  0
 16 17  2  0
 17 18  1  0
 18 19  1  0
 14 20  1  0
  8 21  1  0
  5 22  1  0
 22 23  1  0
 23  2  1  0
 21  5  1  0
 20 11  1  0
 19 15  2  0
  1 24  1  0
  1 25  1  0
  1 26  1  0
  2 27  1  1
  3 28  1  0
  3 29  1  0
  4 30  1  0
  4 31  1  0
  6 32  1  0
  6 33  1  0
  7 34  1  0
  7 35  1  0
 12 36  1  0
 13 37  1  0
 18 38  1  0
 21 39  1  0
 21 40  1  0
 22 41  1  0
 22 42  1  0
 23 43  1  0
 23 44  1  0
M  END
>  <meeko>  (4) 
{"is_sidechain": [false], "free_energy": -8.52, "intermolecular_energy": -9.966, "internal_energy": -0.469}

$$$$
ligand_60_conformer_1_docked
     RDKit          3D

 44 47  0  0  0  0  0  0  0  0999 V2000
   -1.8340   42.5200   51.6490 C   0  0  0  0  0  0  0  0  0  0  0  0
   -0.8390   43.3500   52.4680 C   0  0  2  0  0  0  0  0  0  0  0  0
    0.5450   42.6590   52.5150 C   0  0  0  0  0  0  0  0  0  0  0  0
    1.4080   43.0800   53.7260 C   0  0  0  0  0  0  0  0  0  0  0  0
    1.0530   44.4860   54.2830 C   0  0  1  0  0  0  0  0  0  0  0  0
    1.9600   44.8070   55.4940 C   0  0  0  0  0  0  0  0  0  0  0  0
    3.1720   45.5320   54.9290 C   0  0  0  0  0  0  0  0  0  0  0  0
    2.7390   46.0740   53.6530 N   0  0  0  0  0  0  0  0  0  0  0  0
    3.5640   46.9590   52.8710 C   0  0  0  0  0  0  0  0  0  0  0  0
    3.1380   48.1110   52.5900 O   0  0  0  0  0  0  0  0  0  0  0  0
    4.8990   46.5590   52.3770 C   0  0  0  0  0  0  0  0  0  0  0  0
    6.1040   47.0960   52.7950 C   0  0  0  0  0  0  0  0  0  0  0  0
    7.0820   46.4390   52.0790 C   0  0  0  0  0  0  0  0  0  0  0  0
    6.4110   45.5440   51.2690 C   0  0  0  0  0  0  0  0  0  0  0  0
    7.0250   44.6110   50.3200 C   0  0  0  0  0  0  0  0  0  0  0  0
    8.2570   44.7580   49.7940 N   0  0  0  0  0  0  0  0  0  0  0  0
    8.4120   43.7090   49.0020 N   0  0  0  0  0  0  0  0  0  0  0  0
    7.3200   42.9650   49.0520 N   0  0  0  0  0  0  0  0  0  0  0  0
    6.4260   43.4950   49.8660 N   0  0  0  0  0  0  0  0  0  0  0  0
    5.1170   45.6390   51.4660 O   0  0  0  0  0  0  0  0  0  0  0  0
    1.4260   45.5870   53.2580 C   0  0  0  0  0  0  0  0  0  0  0  0
   -0.4520   44.5310   54.7020 C   0  0  0  0  0  0  0  0  0  0  0  0
   -1.3740   43.6000   53.8850 C   0  0  0  0  0  0  0  0  0  0  0  0
   -2.4975   41.9665   52.3297 H   0  0  0  0  0  0  0  0  0  0  0  0
   -2.4346   43.1886   51.0148 H   0  0  0  0  0  0  0  0  0  0  0  0
   -1.2839   41.8092   51.0148 H   0  0  0  0  0  0  0  0  0  0  0  0
   -0.7169   44.3247   51.9729 H   0  0  0  0  0  0  0  0  0  0  0  0
    0.3888   41.5711   52.5612 H   0  0  0  0  0  0  0  0  0  0  0  0
    1.0891   42.9665   51.6098 H   0  0  0  0  0  0  0  0  0  0  0  0
    1.2649   42.3416   54.5286 H   0  0  0  0  0  0  0  0  0  0  0  0
    2.4511   43.1239   53.3795 H   0  0  0  0  0  0  0  0  0  0  0  0
    1.4284   45.4514   56.2096 H   0  0  0  0  0  0  0  0  0  0  0  0
    2.2517   43.8933   56.0325 H   0  0  0  0  0  0  0  0  0  0  0  0
    3.4851   46.3418   55.6044 H   0  0  0  0  0  0  0  0  0  0  0  0
    4.0343   44.8586   54.8152 H   0  0  0  0  0  0  0  0  0  0  0  0
    6.2515   47.8863   53.5458 H   0  0  0  0  0  0  0  0  0  0  0  0
    8.1692   46.5950   52.1401 H   0  0  0  0  0  0  0  0  0  0  0  0
    7.1830   42.0780   48.5190 H   0  0  0  0  0  0  0  0  0  0  0  0
    0.6899   46.4038   53.2895 H   0  0  0  0  0  0  0  0  0  0  0  0
    1.4340   45.1949   52.2303 H   0  0  0  0  0  0  0  0  0  0  0  0
   -0.5224   44.2409   55.7607 H   0  0  0  0  0  0  0  0  0  0  0  0
   -0.7982   45.5578   54.5125 H   0  0  0  0  0  0  0  0  0  0  0  0
   -1.4562   42.6356   54.4076 H   0  0  0  0  0  0  0  0  0  0  0  0
   -2.3539   44.0913   53.7936 H   0  0  0  0  0  0  0  0  0  0  0  0
  1  2  1  0
  2  3  1  0
  3  4  1  0
  5  4  1  1
  5  6  1  0
  6  7  1  0
  7  8  1  0
  8  9  1  0
  9 10  2  0
  9 11  1  0
 11 12  2  0
 12 13  1  0
 13 14  2  0
 14 15  1  0
 15 16  1  0
 16 17  2  0
 17 18  1  0
 18 19  1  0
 14 20  1  0
  8 21  1  0
  5 22  1  0
 22 23  1  0
 23  2  1  0
 21  5  1  0
 20 11  1  0
 19 15  2  0
  1 24  1  0
  1 25  1  0
  1 26  1  0
  2 27  1  1
  3 28  1  0
  3 29  1  0
  4 30  1  0
  4 31  1  0
  6 32  1  0
  6 33  1  0
  7 34  1  0
  7 35  1  0
 12 36  1  0
 13 37  1  0
 18 38  1  0
 21 39  1  0
 21 40  1  0
 22 41  1  0
 22 42  1  0
 23 43  1  0
 23 44  1  0
M  END
>  <meeko>  (5) 
{"is_sidechain": [false], "free_energy": -8.513, "intermolecular_energy": -9.943, "internal_energy": -0.483}

$$$$
