ligand_79_conformer_4_docked
     RDKit          3D

 45 47  0  0  0  0  0  0  0  0999 V2000
    5.8910   44.9380   55.7780 C   0  0  0  0  0  0  0  0  0  0  0  0
    5.0670   45.9510   54.9760 C   0  0  1  0  0  0  0  0  0  0  0  0
    5.8570   46.5980   53.8650 C   0  0  0  0  0  0  0  0  0  0  0  0
    5.5090   47.7160   53.3960 O   0  0  0  0  0  0  0  0  0  0  0  0
    7.0000   45.9070   53.3330 N   0  0  0  0  0  0  0  0  0  0  0  0
    8.1710   46.5420   52.6930 C   0  0  0  0  0  0  0  0  0  0  0  0
    8.0090   46.6670   51.1540 C   0  0  0  0  0  0  0  0  0  0  0  0
    7.5480   45.3810   50.5020 C   0  0  0  0  0  0  0  0  0  0  0  0
    6.2200   44.9430   50.6550 C   0  0  0  0  0  0  0  0  0  0  0  0
    5.7960   43.7450   50.0710 C   0  0  0  0  0  0  0  0  0  0  0  0
    6.6910   42.9790   49.3210 C   0  0  0  0  0  0  0  0  0  0  0  0
    8.0070   43.4110   49.1490 C   0  0  0  0  0  0  0  0  0  0  0  0
    8.4360   44.6080   49.7320 C   0  0  0  0  0  0  0  0  0  0  0  0
    9.5250   45.9590   53.1290 C   0  0  0  0  0  0  0  0  0  0  0  0
    9.8730   47.2830   53.8010 C   0  0  0  0  0  0  0  0  0  0  0  0
    8.5390   47.8740   53.3570 C   0  0  0  0  0  0  0  0  0  0  0  0
    3.8880   45.2910   54.4110 N   0  0  0  0  0  0  0  0  0  0  0  0
    2.6130   45.4610   54.8150 C   0  0  0  0  0  0  0  0  0  0  0  0
    1.7980   44.6800   54.0250 C   0  0  0  0  0  0  0  0  0  0  0  0
    2.6630   44.0640   53.1360 C   0  0  0  0  0  0  0  0  0  0  0  0
    2.2940   43.0520   52.0990 C   0  0  0  0  0  0  0  0  0  0  0  0
    1.9890   43.6930   50.9120 F   0  0  0  0  0  0  0  0  0  0  0  0
    3.3610   42.1990   51.8940 F   0  0  0  0  0  0  0  0  0  0  0  0
    1.1960   42.3170   52.5090 F   0  0  0  0  0  0  0  0  0  0  0  0
    3.9300   44.4400   53.3970 N   0  0  0  0  0  0  0  0  0  0  0  0
    5.7457   45.1167   56.8536 H   0  0  0  0  0  0  0  0  0  0  0  0
    5.5627   43.9183   55.5280 H   0  0  0  0  0  0  0  0  0  0  0  0
    6.9562   45.0518   55.5280 H   0  0  0  0  0  0  0  0  0  0  0  0
    4.7683   46.7471   55.6739 H   0  0  0  0  0  0  0  0  0  0  0  0
    7.0120   44.8730   53.4700 H   0  0  0  0  0  0  0  0  0  0  0  0
    7.2688   47.4526   50.9420 H   0  0  0  0  0  0  0  0  0  0  0  0
    8.9974   46.9114   50.7376 H   0  0  0  0  0  0  0  0  0  0  0  0
    5.5097   45.5473   51.2383 H   0  0  0  0  0  0  0  0  0  0  0  0
    4.7578   43.4062   50.2024 H   0  0  0  0  0  0  0  0  0  0  0  0
    6.3586   42.0345   48.8655 H   0  0  0  0  0  0  0  0  0  0  0  0
    8.7087   42.8086   48.5534 H   0  0  0  0  0  0  0  0  0  0  0  0
    9.4726   44.9465   49.5877 H   0  0  0  0  0  0  0  0  0  0  0  0
    9.4463   45.1093   53.8231 H   0  0  0  0  0  0  0  0  0  0  0  0
   10.2053   45.5128   52.3886 H   0  0  0  0  0  0  0  0  0  0  0  0
    9.9900   47.2133   54.8925 H   0  0  0  0  0  0  0  0  0  0  0  0
   10.8140   47.7968   53.5550 H   0  0  0  0  0  0  0  0  0  0  0  0
    7.8762   48.1605   54.1868 H   0  0  0  0  0  0  0  0  0  0  0  0
    8.5088   48.8107   52.7810 H   0  0  0  0  0  0  0  0  0  0  0  0
    2.2799   46.1127   55.6361 H   0  0  0  0  0  0  0  0  0  0  0  0
    0.7052   44.5703   54.0866 H   0  0  0  0  0  0  0  0  0  0  0  0
  1  2  1  0
  2  3  1  0
  3  4  2  0
  3  5  1  0
  5  6  1  0
  6  7  1  0
  7  8  1  0
  8  9  2  0
  9 10  1  0
 10 11  2  0
 11 12  1  0
 12 13  2  0
  6 14  1  0
 14 15  1  0
 15 16  1  0
  2 17  1  0
 17 18  1  0
 18 19  2  0
 19 20  1  0
 20 21  1  0
 21 22  1  0
 21 23  1  0
 21 24  1  0
 20 25  2  0
 16  6  1  0
 25 17  1  0
 13  8  1  0
  1 26  1  0
  1 27  1  0
  1 28  1  0
  2 29  1  1
  5 30  1  0
  7 31  1  0
  7 32  1  0
  9 33  1  0
 10 34  1  0
 11 35  1  0
 12 36  1  0
 13 37  1  0
 14 38  1  0
 14 39  1  0
 15 40  1  0
 15 41  1  0
 16 42  1  0
 16 43  1  0
 18 44  1  0
 19 45  1  0
M  END
>  <meeko>  (1) 
{"is_sidechain": [false], "free_energy": -9.448, "intermolecular_energy": -12.762, "internal_energy": -0.988}

$$$$
ligand_79_conformer_4_docked
     RDKit          3D

 45 47  0  0  0  0  0  0  0  0999 V2000
    1.3730   43.1110   52.2940 C   0  0  0  0  0  0  0  0  0  0  0  0
    2.5370   43.9920   51.8300 C   0  0  1  0  0  0  0  0  0  0  0  0
    3.1530   44.7870   52.9550 C   0  0  0  0  0  0  0  0  0  0  0  0
    2.7480   44.6420   54.1410 O   0  0  0  0  0  0  0  0  0  0  0  0
    4.1930   45.7320   52.6500 N   0  0  0  0  0  0  0  0  0  0  0  0
    5.2570   46.1720   53.5760 C   0  0  0  0  0  0  0  0  0  0  0  0
    6.0290   47.4090   53.0450 C   0  0  0  0  0  0  0  0  0  0  0  0
    7.5080   47.1470   52.8570 C   0  0  0  0  0  0  0  0  0  0  0  0
    7.9870   46.6190   51.6440 C   0  0  0  0  0  0  0  0  0  0  0  0
    9.3500   46.3570   51.4740 C   0  0  0  0  0  0  0  0  0  0  0  0
   10.2490   46.6280   52.5080 C   0  0  0  0  0  0  0  0  0  0  0  0
    9.7870   47.1660   53.7110 C   0  0  0  0  0  0  0  0  0  0  0  0
    8.4250   47.4290   53.8860 C   0  0  0  0  0  0  0  0  0  0  0  0
    6.1690   45.0390   54.0760 C   0  0  0  0  0  0  0  0  0  0  0  0
    5.6280   45.2340   55.4880 C   0  0  0  0  0  0  0  0  0  0  0  0
    4.7340   46.3700   55.0030 C   0  0  0  0  0  0  0  0  0  0  0  0
    3.5670   43.1600   51.2050 N   0  0  0  0  0  0  0  0  0  0  0  0
    3.5130   41.8240   51.0340 C   0  0  0  0  0  0  0  0  0  0  0  0
    4.6630   41.4190   50.3940 C   0  0  0  0  0  0  0  0  0  0  0  0
    5.3760   42.5890   50.1890 C   0  0  0  0  0  0  0  0  0  0  0  0
    6.7400   42.7010   49.5880 C   0  0  0  0  0  0  0  0  0  0  0  0
    7.5140   41.6260   49.9870 F   0  0  0  0  0  0  0  0  0  0  0  0
    6.6350   42.6980   48.2110 F   0  0  0  0  0  0  0  0  0  0  0  0
    7.3540   43.8720   49.9950 F   0  0  0  0  0  0  0  0  0  0  0  0
    4.6970   43.6330   50.7020 N   0  0  0  0  0  0  0  0  0  0  0  0
    1.3449   43.0897   53.3934 H   0  0  0  0  0  0  0  0  0  0  0  0
    0.4271   43.5215   51.9109 H   0  0  0  0  0  0  0  0  0  0  0  0
    1.5112   42.0892   51.9109 H   0  0  0  0  0  0  0  0  0  0  0  0
    2.1269   44.7108   51.1054 H   0  0  0  0  0  0  0  0  0  0  0  0
    4.2150   46.0820   51.6680 H   0  0  0  0  0  0  0  0  0  0  0  0
    5.5988   47.7012   52.0757 H   0  0  0  0  0  0  0  0  0  0  0  0
    5.9289   48.2067   53.7958 H   0  0  0  0  0  0  0  0  0  0  0  0
    7.2844   46.4108   50.8237 H   0  0  0  0  0  0  0  0  0  0  0  0
    9.7146   45.9370   50.5249 H   0  0  0  0  0  0  0  0  0  0  0  0
   11.3205   46.4177   52.3748 H   0  0  0  0  0  0  0  0  0  0  0  0
   10.4965   47.3834   54.5230 H   0  0  0  0  0  0  0  0  0  0  0  0
    8.0684   47.8589   54.8337 H   0  0  0  0  0  0  0  0  0  0  0  0
    5.9438   44.0546   53.6399 H   0  0  0  0  0  0  0  0  0  0  0  0
    7.2517   45.0675   53.8838 H   0  0  0  0  0  0  0  0  0  0  0  0
    5.0761   44.3666   55.8791 H   0  0  0  0  0  0  0  0  0  0  0  0
    6.3204   45.3959   56.3273 H   0  0  0  0  0  0  0  0  0  0  0  0
    3.6576   46.1748   55.1179 H   0  0  0  0  0  0  0  0  0  0  0  0
    4.7820   47.3594   55.4814 H   0  0  0  0  0  0  0  0  0  0  0  0
    2.6893   41.1680   51.3520 H   0  0  0  0  0  0  0  0  0  0  0  0
    4.9509   40.3962   50.1094 H   0  0  0  0  0  0  0  0  0  0  0  0
  1  2  1  0
  2  3  1  0
  3  4  2  0
  3  5  1  0
  5  6  1  0
  6  7  1  0
  7  8  1  0
  8  9  2  0
  9 10  1  0
 10 11  2  0
 11 12  1  0
 12 13  2  0
  6 14  1  0
 14 15  1  0
 15 16  1  0
  2 17  1  0
 17 18  1  0
 18 19  2  0
 19 20  1  0
 20 21  1  0
 21 22  1  0
 21 23  1  0
 21 24  1  0
 20 25  2  0
 16  6  1  0
 25 17  1  0
 13  8  1  0
  1 26  1  0
  1 27  1  0
  1 28  1  0
  2 29  1  6
  5 30  1  0
  7 31  1  0
  7 32  1  0
  9 33  1  0
 10 34  1  0
 11 35  1  0
 12 36  1  0
 13 37  1  0
 14 38  1  0
 14 39  1  0
 15 40  1  0
 15 41  1  0
 16 42  1  0
 16 43  1  0
 18 44  1  0
 19 45  1  0
M  END
>  <meeko>  (2) 
{"is_sidechain": [false], "free_energy": -9.173, "intermolecular_energy": -12.647, "internal_energy": -0.732}

$$$$
ligand_79_conformer_4_docked
     RDKit          3D

 45 47  0  0  0  0  0  0  0  0999 V2000
    3.1780   42.3320   52.2770 C   0  0  0  0  0  0  0  0  0  0  0  0
    3.6030   43.4000   51.2640 C   0  0  1  0  0  0  0  0  0  0  0  0
    3.7500   44.7680   51.8850 C   0  0  0  0  0  0  0  0  0  0  0  0
    2.8890   45.6650   51.6740 O   0  0  0  0  0  0  0  0  0  0  0  0
    4.9010   45.0390   52.7020 N   0  0  0  0  0  0  0  0  0  0  0  0
    4.9690   46.0340   53.7930 C   0  0  0  0  0  0  0  0  0  0  0  0
    5.6870   47.3400   53.3590 C   0  0  0  0  0  0  0  0  0  0  0  0
    7.1840   47.1700   53.2100 C   0  0  0  0  0  0  0  0  0  0  0  0
    7.7460   46.9000   51.9490 C   0  0  0  0  0  0  0  0  0  0  0  0
    9.1260   46.7230   51.8110 C   0  0  0  0  0  0  0  0  0  0  0  0
    9.9580   46.8230   52.9280 C   0  0  0  0  0  0  0  0  0  0  0  0
    9.4140   47.1050   54.1820 C   0  0  0  0  0  0  0  0  0  0  0  0
    8.0340   47.2830   54.3250 C   0  0  0  0  0  0  0  0  0  0  0  0
    5.4650   45.4690   55.1350 C   0  0  0  0  0  0  0  0  0  0  0  0
    4.0890   45.7190   55.7420 C   0  0  0  0  0  0  0  0  0  0  0  0
    3.5950   46.2960   54.4200 C   0  0  0  0  0  0  0  0  0  0  0  0
    4.8700   43.0120   50.6410 N   0  0  0  0  0  0  0  0  0  0  0  0
    5.2780   41.7530   50.3870 C   0  0  0  0  0  0  0  0  0  0  0  0
    6.5130   41.8080   49.7800 C   0  0  0  0  0  0  0  0  0  0  0  0
    6.7910   43.1610   49.6820 C   0  0  0  0  0  0  0  0  0  0  0  0
    8.0510   43.7710   49.1570 C   0  0  0  0  0  0  0  0  0  0  0  0
    7.9980   45.1450   49.3020 F   0  0  0  0  0  0  0  0  0  0  0  0
    9.1280   43.2790   49.8680 F   0  0  0  0  0  0  0  0  0  0  0  0
    8.2140   43.4660   47.8170 F   0  0  0  0  0  0  0  0  0  0  0  0
    5.7850   43.8750   50.2240 N   0  0  0  0  0  0  0  0  0  0  0  0
    3.3298   42.7135   53.2975 H   0  0  0  0  0  0  0  0  0  0  0  0
    2.1150   42.0899   52.1304 H   0  0  0  0  0  0  0  0  0  0  0  0
    3.7840   41.4258   52.1304 H   0  0  0  0  0  0  0  0  0  0  0  0
    2.8046   43.4650   50.5101 H   0  0  0  0  0  0  0  0  0  0  0  0
    5.7330   44.4330   52.5330 H   0  0  0  0  0  0  0  0  0  0  0  0
    5.2729   47.6632   52.3925 H   0  0  0  0  0  0  0  0  0  0  0  0
    5.5174   48.0869   54.1485 H   0  0  0  0  0  0  0  0  0  0  0  0
    7.0951   46.8276   51.0652 H   0  0  0  0  0  0  0  0  0  0  0  0
    9.5564   46.5049   50.8224 H   0  0  0  0  0  0  0  0  0  0  0  0
   11.0432   46.6794   52.8195 H   0  0  0  0  0  0  0  0  0  0  0  0
   10.0719   47.1874   55.0597 H   0  0  0  0  0  0  0  0  0  0  0  0
    7.6114   47.5125   55.3143 H   0  0  0  0  0  0  0  0  0  0  0  0
    5.7542   44.4084   55.0973 H   0  0  0  0  0  0  0  0  0  0  0  0
    6.3686   45.8756   55.6126 H   0  0  0  0  0  0  0  0  0  0  0  0
    3.5649   44.8035   56.0538 H   0  0  0  0  0  0  0  0  0  0  0  0
    3.9925   46.3026   56.6694 H   0  0  0  0  0  0  0  0  0  0  0  0
    2.7749   45.7256   53.9594 H   0  0  0  0  0  0  0  0  0  0  0  0
    3.1483   47.3005   54.3830 H   0  0  0  0  0  0  0  0  0  0  0  0
    4.7189   40.8360   50.6245 H   0  0  0  0  0  0  0  0  0  0  0  0
    7.1382   40.9662   49.4477 H   0  0  0  0  0  0  0  0  0  0  0  0
  1  2  1  0
  2  3  1  0
  3  4  2  0
  3  5  1  0
  5  6  1  0
  6  7  1  0
  7  8  1  0
  8  9  2  0
  9 10  1  0
 10 11  2  0
 11 12  1  0
 12 13  2  0
  6 14  1  0
 14 15  1  0
 15 16  1  0
  2 17  1  0
 17 18  1  0
 18 19  2  0
 19 20  1  0
 20 21  1  0
 21 22  1  0
 21 23  1  0
 21 24  1  0
 20 25  2  0
 16  6  1  0
 25 17  1  0
 13  8  1  0
  1 26  1  0
  1 27  1  0
  1 28  1  0
  2 29  1  6
  5 30  1  0
  7 31  1  0
  7 32  1  0
  9 33  1  0
 10 34  1  0
 11 35  1  0
 12 36  1  0
 13 37  1  0
 14 38  1  0
 14 39  1  0
 15 40  1  0
 15 41  1  0
 16 42  1  0
 16 43  1  0
 18 44  1  0
 19 45  1  0
M  END
>  <meeko>  (3) 
{"is_sidechain": [false], "free_energy": -8.684, "intermolecular_energy": -11.698, "internal_energy": -1.021}

$$$$
ligand_79_conformer_4_docked
     RDKit          3D

 45 47  0  0  0  0  0  0  0  0999 V2000
    4.2860   47.9670   53.8130 C   0  0  0  0  0  0  0  0  0  0  0  0
    5.0760   46.8270   54.4650 C   0  0  1  0  0  0  0  0  0  0  0  0
    4.5290   45.4640   54.1170 C   0  0  0  0  0  0  0  0  0  0  0  0
    4.4840   44.5490   54.9850 O   0  0  0  0  0  0  0  0  0  0  0  0
    4.0810   45.2180   52.7740 N   0  0  0  0  0  0  0  0  0  0  0  0
    3.0590   44.2280   52.3730 C   0  0  0  0  0  0  0  0  0  0  0  0
    3.6250   42.7840   52.3180 C   0  0  0  0  0  0  0  0  0  0  0  0
    4.5170   42.5440   51.1190 C   0  0  0  0  0  0  0  0  0  0  0  0
    5.5640   43.4370   50.8230 C   0  0  0  0  0  0  0  0  0  0  0  0
    6.3780   43.2300   49.7050 C   0  0  0  0  0  0  0  0  0  0  0  0
    6.1610   42.1260   48.8780 C   0  0  0  0  0  0  0  0  0  0  0  0
    5.1350   41.2250   49.1700 C   0  0  0  0  0  0  0  0  0  0  0  0
    4.3180   41.4280   50.2870 C   0  0  0  0  0  0  0  0  0  0  0  0
    2.2460   44.6250   51.1290 C   0  0  0  0  0  0  0  0  0  0  0  0
    0.9940   44.7420   51.9910 C   0  0  0  0  0  0  0  0  0  0  0  0
    1.7900   44.3330   53.2260 C   0  0  0  0  0  0  0  0  0  0  0  0
    6.4800   46.9040   54.0570 N   0  0  0  0  0  0  0  0  0  0  0  0
    7.5290   47.1510   54.8660 C   0  0  0  0  0  0  0  0  0  0  0  0
    8.6800   47.1230   54.1090 C   0  0  0  0  0  0  0  0  0  0  0  0
    8.2450   46.8320   52.8270 C   0  0  0  0  0  0  0  0  0  0  0  0
    9.0940   46.7540   51.6000 C   0  0  0  0  0  0  0  0  0  0  0  0
    9.0100   47.9440   50.9000 F   0  0  0  0  0  0  0  0  0  0  0  0
   10.4080   46.5340   51.9660 F   0  0  0  0  0  0  0  0  0  0  0  0
    8.6710   45.7210   50.7830 F   0  0  0  0  0  0  0  0  0  0  0  0
    6.9030   46.7160   52.8160 N   0  0  0  0  0  0  0  0  0  0  0  0
    3.8457   48.6024   54.5956 H   0  0  0  0  0  0  0  0  0  0  0  0
    4.9609   48.5700   53.1877 H   0  0  0  0  0  0  0  0  0  0  0  0
    3.4844   47.5469   53.1877 H   0  0  0  0  0  0  0  0  0  0  0  0
    4.9816   46.9512   55.5539 H   0  0  0  0  0  0  0  0  0  0  0  0
    4.4810   45.8410   52.0390 H   0  0  0  0  0  0  0  0  0  0  0  0
    4.2094   42.6015   53.2319 H   0  0  0  0  0  0  0  0  0  0  0  0
    2.7692   42.0980   52.2342 H   0  0  0  0  0  0  0  0  0  0  0  0
    5.7432   44.3040   51.4759 H   0  0  0  0  0  0  0  0  0  0  0  0
    7.1893   43.9369   49.4770 H   0  0  0  0  0  0  0  0  0  0  0  0
    6.7986   41.9660   47.9961 H   0  0  0  0  0  0  0  0  0  0  0  0
    4.9688   40.3533   48.5199 H   0  0  0  0  0  0  0  0  0  0  0  0
    3.5158   40.7110   50.5158 H   0  0  0  0  0  0  0  0  0  0  0  0
    2.5640   45.5712   50.6669 H   0  0  0  0  0  0  0  0  0  0  0  0
    2.2494   43.9873   50.2327 H   0  0  0  0  0  0  0  0  0  0  0  0
    0.5802   45.7599   52.0426 H   0  0  0  0  0  0  0  0  0  0  0  0
    0.0808   44.1938   51.7159 H   0  0  0  0  0  0  0  0  0  0  0  0
    1.8364   45.1064   54.0068 H   0  0  0  0  0  0  0  0  0  0  0  0
    1.4623   43.4837   53.8436 H   0  0  0  0  0  0  0  0  0  0  0  0
    7.4755   47.3426   55.9479 H   0  0  0  0  0  0  0  0  0  0  0  0
    9.7127   47.2936   54.4472 H   0  0  0  0  0  0  0  0  0  0  0  0
  1  2  1  0
  2  3  1  0
  3  4  2  0
  3  5  1  0
  5  6  1  0
  6  7  1  0
  7  8  1  0
  8  9  2  0
  9 10  1  0
 10 11  2  0
 11 12  1  0
 12 13  2  0
  6 14  1  0
 14 15  1  0
 15 16  1  0
  2 17  1  0
 17 18  1  0
 18 19  2  0
 19 20  1  0
 20 21  1  0
 21 22  1  0
 21 23  1  0
 21 24  1  0
 20 25  2  0
 16  6  1  0
 25 17  1  0
 13  8  1  0
  1 26  1  0
  1 27  1  0
  1 28  1  0
  2 29  1  1
  5 30  1  0
  7 31  1  0
  7 32  1  0
  9 33  1  0
 10 34  1  0
 11 35  1  0
 12 36  1  0
 13 37  1  0
 14 38  1  0
 14 39  1  0
 15 40  1  0
 15 41  1  0
 16 42  1  0
 16 43  1  0
 18 44  1  0
 19 45  1  0
M  END
>  <meeko>  (4) 
{"is_sidechain": [false], "free_energy": -8.461, "intermolecular_energy": -11.363, "internal_energy": -1.054}

$$$$
ligand_79_conformer_4_docked
     RDKit          3D

 45 47  0  0  0  0  0  0  0  0999 V2000
    4.4280   48.3810   54.3290 C   0  0  0  0  0  0  0  0  0  0  0  0
    4.7320   46.9150   54.0030 C   0  0  1  0  0  0  0  0  0  0  0  0
    3.6290   46.2500   53.2170 C   0  0  0  0  0  0  0  0  0  0  0  0
    2.9260   46.9150   52.4080 O   0  0  0  0  0  0  0  0  0  0  0  0
    3.3780   44.8490   53.4230 N   0  0  0  0  0  0  0  0  0  0  0  0
    2.7840   43.9260   52.4340 C   0  0  0  0  0  0  0  0  0  0  0  0
    3.5490   42.5780   52.3490 C   0  0  0  0  0  0  0  0  0  0  0  0
    4.4970   42.5100   51.1700 C   0  0  0  0  0  0  0  0  0  0  0  0
    4.4300   41.4330   50.2660 C   0  0  0  0  0  0  0  0  0  0  0  0
    5.3170   41.3570   49.1880 C   0  0  0  0  0  0  0  0  0  0  0  0
    6.2710   42.3590   48.9950 C   0  0  0  0  0  0  0  0  0  0  0  0
    6.3360   43.4400   49.8770 C   0  0  0  0  0  0  0  0  0  0  0  0
    5.4520   43.5200   50.9570 C   0  0  0  0  0  0  0  0  0  0  0  0
    2.4970   44.5640   51.0640 C   0  0  0  0  0  0  0  0  0  0  0  0
    1.0010   44.3860   51.3010 C   0  0  0  0  0  0  0  0  0  0  0  0
    1.2790   43.7370   52.6520 C   0  0  0  0  0  0  0  0  0  0  0  0
    5.9850   46.8260   53.2500 N   0  0  0  0  0  0  0  0  0  0  0  0
    6.1000   46.6580   51.9180 C   0  0  0  0  0  0  0  0  0  0  0  0
    7.4390   46.6420   51.5950 C   0  0  0  0  0  0  0  0  0  0  0  0
    8.0900   46.8260   52.8030 C   0  0  0  0  0  0  0  0  0  0  0  0
    9.5690   46.8190   53.0230 C   0  0  0  0  0  0  0  0  0  0  0  0
    9.9500   45.6140   53.5840 F   0  0  0  0  0  0  0  0  0  0  0  0
   10.2120   46.9810   51.8110 F   0  0  0  0  0  0  0  0  0  0  0  0
    9.9370   47.8470   53.8730 F   0  0  0  0  0  0  0  0  0  0  0  0
    7.1870   46.9220   53.7980 N   0  0  0  0  0  0  0  0  0  0  0  0
    4.4001   48.5158   55.4204 H   0  0  0  0  0  0  0  0  0  0  0  0
    5.2123   49.0222   53.9003 H   0  0  0  0  0  0  0  0  0  0  0  0
    3.4534   48.6575   53.9003 H   0  0  0  0  0  0  0  0  0  0  0  0
    4.8182   46.3839   54.9624 H   0  0  0  0  0  0  0  0  0  0  0  0
    3.7010   44.4580   54.3340 H   0  0  0  0  0  0  0  0  0  0  0  0
    4.1295   42.4453   53.2739 H   0  0  0  0  0  0  0  0  0  0  0  0
    2.8009   41.7825   52.2165 H   0  0  0  0  0  0  0  0  0  0  0  0
    3.6748   40.6460   50.4087 H   0  0  0  0  0  0  0  0  0  0  0  0
    5.2636   40.5075   48.4912 H   0  0  0  0  0  0  0  0  0  0  0  0
    6.9708   42.2967   48.1486 H   0  0  0  0  0  0  0  0  0  0  0  0
    7.0848   44.2306   49.7214 H   0  0  0  0  0  0  0  0  0  0  0  0
    5.5037   44.3776   51.6439 H   0  0  0  0  0  0  0  0  0  0  0  0
    2.8176   45.6129   50.9801 H   0  0  0  0  0  0  0  0  0  0  0  0
    2.9694   44.1675   50.1531 H   0  0  0  0  0  0  0  0  0  0  0  0
    0.4429   45.3317   51.3656 H   0  0  0  0  0  0  0  0  0  0  0  0
    0.3816   43.8660   50.5554 H   0  0  0  0  0  0  0  0  0  0  0  0
    0.8760   44.2954   53.5098 H   0  0  0  0  0  0  0  0  0  0  0  0
    0.8712   42.7426   52.8861 H   0  0  0  0  0  0  0  0  0  0  0  0
    5.2659   46.5517   51.2087 H   0  0  0  0  0  0  0  0  0  0  0  0
    7.8900   46.5121   50.6002 H   0  0  0  0  0  0  0  0  0  0  0  0
  1  2  1  0
  2  3  1  0
  3  4  2  0
  3  5  1  0
  5  6  1  0
  6  7  1  0
  7  8  1  0
  8  9  2  0
  9 10  1  0
 10 11  2  0
 11 12  1  0
 12 13  2  0
  6 14  1  0
 14 15  1  0
 15 16  1  0
  2 17  1  0
 17 18  1  0
 18 19  2  0
 19 20  1  0
 20 21  1  0
 21 22  1  0
 21 23  1  0
 21 24  1  0
 20 25  2  0
 16  6  1  0
 25 17  1  0
 13  8  1  0
  1 26  1  0
  1 27  1  0
  1 28  1  0
  2 29  1  1
  5 30  1  0
  7 31  1  0
  7 32  1  0
  9 33  1  0
 10 34  1  0
 11 35  1  0
 12 36  1  0
 13 37  1  0
 14 38  1  0
 14 39  1  0
 15 40  1  0
 15 41  1  0
 16 42  1  0
 16 43  1  0
 18 44  1  0
 19 45  1  0
M  END
>  <meeko>  (5) 
{"is_sidechain": [false], "free_energy": -8.317, "intermolecular_energy": -12.022, "internal_energy": -0.2}

$$$$
