MODEL 1
REMARK VINA RESULT:    -8.179      0.000      0.000
REMARK INTER + INTRA:         -11.661
REMARK INTER:                 -10.570
REMARK INTRA:                  -1.091
REMARK UNBOUND:                -1.091
REMARK SMILES O=C(CSc1cccc(Br)c1)N1CCc2c(ncn2-c2ccc(F)cc2)C1
REMARK SMILES IDX 1 1 2 2 3 3 4 4 5 5 6 6 11 7 7 8 9 9 8 10 10 11 12 12 13 13
REMARK SMILES IDX 27 14 14 15 16 16 15 17 17 18 19 19 18 20 20 21 21 22 26 23
REMARK SMILES IDX 22 24 25 25 23 26 24 27
REMARK H PARENT
ROOT
ATOM      1  O   UNL     1       6.409  47.559  54.897  1.00  0.00    -0.274 OA
ATOM      2  C   UNL     1       5.953  46.619  54.191  1.00  0.00     0.233 C 
ENDROOT
BRANCH   2   3
ATOM      3  C   UNL     1       6.942  45.802  53.399  1.00  0.00     0.175 C 
BRANCH   3   4
ATOM      4  S   UNL     1       7.212  46.527  51.743  1.00  0.00    -0.116 SA
BRANCH   4   5
ATOM      5  C   UNL     1       6.915  45.011  50.828  1.00  0.00     0.009 A 
ATOM      6  C   UNL     1       7.783  44.634  49.795  1.00  0.00     0.015 A 
ATOM      7  C   UNL     1       5.824  44.194  51.154  1.00  0.00     0.030 A 
ATOM      8  C   UNL     1       7.547  43.460  49.074  1.00  0.00     0.002 A 
ATOM      9  C   UNL     1       5.583  43.025  50.423  1.00  0.00     0.019 A 
ATOM     10  C   UNL     1       6.443  42.660  49.381  1.00  0.00     0.016 A 
ATOM     11  Br  UNL     1       4.071  41.935  50.839  1.00  0.00    -0.051 Br
ENDBRANCH   4   5
ENDBRANCH   3   4
ENDBRANCH   2   3
BRANCH   2  12
ATOM     12  N   UNL     1       4.521  46.402  54.123  1.00  0.00    -0.336 N 
ATOM     13  C   UNL     1       3.782  46.886  52.934  1.00  0.00     0.126 C 
ATOM     14  C   UNL     1       3.752  46.032  55.332  1.00  0.00     0.177 C 
ATOM     15  C   UNL     1       2.704  45.880  52.496  1.00  0.00     0.078 C 
ATOM     16  C   UNL     1       2.413  45.477  54.967  1.00  0.00     0.081 A 
ATOM     17  C   UNL     1       1.938  45.403  53.689  1.00  0.00     0.049 A 
ATOM     18  N   UNL     1       1.507  44.981  55.831  1.00  0.00    -0.239 NA
ATOM     19  N   UNL     1       0.718  44.834  53.721  1.00  0.00    -0.303 N 
ATOM     20  C   UNL     1       0.481  44.602  55.034  1.00  0.00     0.205 A 
BRANCH  19  21
ATOM     21  C   UNL     1      -0.168  44.540  52.628  1.00  0.00     0.047 A 
ATOM     22  C   UNL     1       0.068  43.420  51.812  1.00  0.00     0.029 A 
ATOM     23  C   UNL     1      -1.259  45.378  52.341  1.00  0.00     0.029 A 
ATOM     24  C   UNL     1      -0.784  43.133  50.742  1.00  0.00     0.041 A 
ATOM     25  C   UNL     1      -2.110  45.088  51.269  1.00  0.00     0.041 A 
ATOM     26  C   UNL     1      -1.874  43.964  50.472  1.00  0.00     0.123 A 
ATOM     27  F   UNL     1      -2.699  43.685  49.432  1.00  0.00    -0.207 F 
ENDBRANCH  19  21
ENDBRANCH   2  12
TORSDOF 5
ENDMDL
MODEL 2
REMARK VINA RESULT:    -7.945      3.992      6.803
REMARK INTER + INTRA:         -11.358
REMARK INTER:                  -9.750
REMARK INTRA:                  -1.608
REMARK UNBOUND:                -1.091
REMARK SMILES O=C(CSc1cccc(Br)c1)N1CCc2c(ncn2-c2ccc(F)cc2)C1
REMARK SMILES IDX 1 1 2 2 3 3 4 4 5 5 6 6 11 7 7 8 9 9 8 10 10 11 12 12 13 13
REMARK SMILES IDX 27 14 14 15 16 16 15 17 17 18 19 19 18 20 20 21 21 22 26 23
REMARK SMILES IDX 22 24 25 25 23 26 24 27
REMARK H PARENT
ROOT
ATOM      1  O   UNL     1       0.905  44.539  55.825  1.00  0.00    -0.274 OA
ATOM      2  C   UNL     1       1.654  44.387  54.822  1.00  0.00     0.233 C 
ENDROOT
BRANCH   2   3
ATOM      3  C   UNL     1       1.264  43.336  53.815  1.00  0.00     0.175 C 
BRANCH   3   4
ATOM      4  S   UNL     1       0.730  44.101  52.243  1.00  0.00    -0.116 SA
BRANCH   4   5
ATOM      5  C   UNL     1       2.379  44.270  51.552  1.00  0.00     0.009 A 
ATOM      6  C   UNL     1       2.866  45.536  51.203  1.00  0.00     0.015 A 
ATOM      7  C   UNL     1       3.187  43.139  51.374  1.00  0.00     0.030 A 
ATOM      8  C   UNL     1       4.145  45.668  50.654  1.00  0.00     0.002 A 
ATOM      9  C   UNL     1       4.462  43.271  50.813  1.00  0.00     0.019 A 
ATOM     10  C   UNL     1       4.940  44.536  50.450  1.00  0.00     0.016 A 
ATOM     11  Br  UNL     1       5.546  41.725  50.530  1.00  0.00    -0.051 Br
ENDBRANCH   4   5
ENDBRANCH   3   4
ENDBRANCH   2   3
BRANCH   2  12
ATOM     12  N   UNL     1       2.869  45.171  54.709  1.00  0.00    -0.336 N 
ATOM     13  C   UNL     1       4.165  44.530  55.032  1.00  0.00     0.126 C 
ATOM     14  C   UNL     1       2.812  46.647  54.619  1.00  0.00     0.177 C 
ATOM     15  C   UNL     1       5.266  44.968  54.052  1.00  0.00     0.078 C 
ATOM     16  C   UNL     1       4.105  47.204  54.115  1.00  0.00     0.081 A 
ATOM     17  C   UNL     1       5.212  46.449  53.854  1.00  0.00     0.049 A 
ATOM     18  N   UNL     1       4.351  48.501  53.851  1.00  0.00    -0.239 NA
ATOM     19  N   UNL     1       6.183  47.263  53.397  1.00  0.00    -0.303 N 
ATOM     20  C   UNL     1       5.634  48.500  53.418  1.00  0.00     0.205 A 
BRANCH  19  21
ATOM     21  C   UNL     1       7.520  46.929  52.984  1.00  0.00     0.047 A 
ATOM     22  C   UNL     1       8.608  47.210  53.827  1.00  0.00     0.029 A 
ATOM     23  C   UNL     1       7.760  46.349  51.727  1.00  0.00     0.029 A 
ATOM     24  C   UNL     1       9.910  46.897  53.428  1.00  0.00     0.041 A 
ATOM     25  C   UNL     1       9.064  46.038  51.330  1.00  0.00     0.041 A 
ATOM     26  C   UNL     1      10.139  46.308  52.182  1.00  0.00     0.123 A 
ATOM     27  F   UNL     1      11.403  46.007  51.796  1.00  0.00    -0.207 F 
ENDBRANCH  19  21
ENDBRANCH   2  12
TORSDOF 5
ENDMDL
MODEL 3
REMARK VINA RESULT:    -7.942      4.492      8.206
REMARK INTER + INTRA:         -11.354
REMARK INTER:                 -10.465
REMARK INTRA:                  -0.889
REMARK UNBOUND:                -1.091
REMARK SMILES O=C(CSc1cccc(Br)c1)N1CCc2c(ncn2-c2ccc(F)cc2)C1
REMARK SMILES IDX 1 1 2 2 3 3 4 4 5 5 6 6 11 7 7 8 9 9 8 10 10 11 12 12 13 13
REMARK SMILES IDX 27 14 14 15 16 16 15 17 17 18 19 19 18 20 20 21 21 22 26 23
REMARK SMILES IDX 22 24 25 25 23 26 24 27
REMARK H PARENT
ROOT
ATOM      1  O   UNL     1       2.018  42.289  50.433  1.00  0.00    -0.274 OA
ATOM      2  C   UNL     1       1.559  43.218  51.151  1.00  0.00     0.233 C 
ENDROOT
BRANCH   2   3
ATOM      3  C   UNL     1       0.063  43.404  51.173  1.00  0.00     0.175 C 
BRANCH   3   4
ATOM      4  S   UNL     1      -0.727  42.217  52.317  1.00  0.00    -0.116 SA
BRANCH   4   5
ATOM      5  C   UNL     1      -1.235  43.440  53.529  1.00  0.00     0.009 A 
ATOM      6  C   UNL     1      -2.515  44.004  53.462  1.00  0.00     0.015 A 
ATOM      7  C   UNL     1      -0.358  43.823  54.553  1.00  0.00     0.030 A 
ATOM      8  C   UNL     1      -2.908  44.966  54.398  1.00  0.00     0.002 A 
ATOM      9  C   UNL     1      -0.749  44.795  55.482  1.00  0.00     0.019 A 
ATOM     10  C   UNL     1      -2.023  45.368  55.402  1.00  0.00     0.016 A 
ATOM     11  Br  UNL     1       0.462  45.349  56.850  1.00  0.00    -0.051 Br
ENDBRANCH   4   5
ENDBRANCH   3   4
ENDBRANCH   2   3
BRANCH   2  12
ATOM     12  N   UNL     1       2.470  44.092  51.864  1.00  0.00    -0.336 N 
ATOM     13  C   UNL     1       3.724  43.524  52.411  1.00  0.00     0.126 C 
ATOM     14  C   UNL     1       2.026  45.419  52.346  1.00  0.00     0.177 C 
ATOM     15  C   UNL     1       4.905  44.491  52.228  1.00  0.00     0.078 C 
ATOM     16  C   UNL     1       3.196  46.287  52.680  1.00  0.00     0.081 A 
ATOM     17  C   UNL     1       4.496  45.874  52.624  1.00  0.00     0.049 A 
ATOM     18  N   UNL     1       3.132  47.574  53.073  1.00  0.00    -0.239 NA
ATOM     19  N   UNL     1       5.286  46.909  52.966  1.00  0.00    -0.303 N 
ATOM     20  C   UNL     1       4.429  47.920  53.243  1.00  0.00     0.205 A 
BRANCH  19  21
ATOM     21  C   UNL     1       6.721  46.961  53.043  1.00  0.00     0.047 A 
ATOM     22  C   UNL     1       7.360  46.933  54.295  1.00  0.00     0.029 A 
ATOM     23  C   UNL     1       7.500  47.071  51.880  1.00  0.00     0.029 A 
ATOM     24  C   UNL     1       8.754  46.992  54.378  1.00  0.00     0.041 A 
ATOM     25  C   UNL     1       8.895  47.131  51.966  1.00  0.00     0.041 A 
ATOM     26  C   UNL     1       9.522  47.088  53.215  1.00  0.00     0.123 A 
ATOM     27  F   UNL     1      10.874  47.147  53.298  1.00  0.00    -0.207 F 
ENDBRANCH  19  21
ENDBRANCH   2  12
TORSDOF 5
ENDMDL
MODEL 4
REMARK VINA RESULT:    -7.637      5.870      8.210
REMARK INTER + INTRA:         -10.960
REMARK INTER:                 -10.683
REMARK INTRA:                  -0.277
REMARK UNBOUND:                -1.091
REMARK SMILES O=C(CSc1cccc(Br)c1)N1CCc2c(ncn2-c2ccc(F)cc2)C1
REMARK SMILES IDX 1 1 2 2 3 3 4 4 5 5 6 6 11 7 7 8 9 9 8 10 10 11 12 12 13 13
REMARK SMILES IDX 27 14 14 15 16 16 15 17 17 18 19 19 18 20 20 21 21 22 26 23
REMARK SMILES IDX 22 24 25 25 23 26 24 27
REMARK H PARENT
ROOT
ATOM      1  O   UNL     1       3.127  39.361  48.424  1.00  0.00    -0.274 OA
ATOM      2  C   UNL     1       3.775  40.426  48.235  1.00  0.00     0.233 C 
ENDROOT
BRANCH   2   3
ATOM      3  C   UNL     1       4.104  40.796  46.812  1.00  0.00     0.175 C 
BRANCH   3   4
ATOM      4  S   UNL     1       2.923  40.029  45.646  1.00  0.00    -0.116 SA
BRANCH   4   5
ATOM      5  C   UNL     1       4.154  39.533  44.437  1.00  0.00     0.009 A 
ATOM      6  C   UNL     1       5.100  40.459  43.978  1.00  0.00     0.015 A 
ATOM      7  C   UNL     1       4.182  38.215  43.961  1.00  0.00     0.030 A 
ATOM      8  C   UNL     1       6.051  40.078  43.028  1.00  0.00     0.002 A 
ATOM      9  C   UNL     1       5.128  37.838  43.001  1.00  0.00     0.019 A 
ATOM     10  C   UNL     1       6.061  38.771  42.533  1.00  0.00     0.016 A 
ATOM     11  Br  UNL     1       5.138  36.054  42.320  1.00  0.00    -0.051 Br
ENDBRANCH   4   5
ENDBRANCH   3   4
ENDBRANCH   2   3
BRANCH   2  12
ATOM     12  N   UNL     1       4.220  41.206  49.373  1.00  0.00    -0.336 N 
ATOM     13  C   UNL     1       5.673  41.412  49.573  1.00  0.00     0.126 C 
ATOM     14  C   UNL     1       3.303  41.497  50.498  1.00  0.00     0.177 C 
ATOM     15  C   UNL     1       5.977  42.843  50.048  1.00  0.00     0.078 C 
ATOM     16  C   UNL     1       3.824  42.618  51.338  1.00  0.00     0.081 A 
ATOM     17  C   UNL     1       5.027  43.230  51.136  1.00  0.00     0.049 A 
ATOM     18  N   UNL     1       3.190  43.171  52.391  1.00  0.00    -0.239 NA
ATOM     19  N   UNL     1       5.168  44.205  52.055  1.00  0.00    -0.303 N 
ATOM     20  C   UNL     1       4.045  44.134  52.806  1.00  0.00     0.205 A 
BRANCH  19  21
ATOM     21  C   UNL     1       6.261  45.122  52.236  1.00  0.00     0.047 A 
ATOM     22  C   UNL     1       6.661  45.494  53.531  1.00  0.00     0.029 A 
ATOM     23  C   UNL     1       6.920  45.682  51.129  1.00  0.00     0.029 A 
ATOM     24  C   UNL     1       7.716  46.393  53.714  1.00  0.00     0.041 A 
ATOM     25  C   UNL     1       7.975  46.581  51.315  1.00  0.00     0.041 A 
ATOM     26  C   UNL     1       8.375  46.934  52.607  1.00  0.00     0.123 A 
ATOM     27  F   UNL     1       9.396  47.807  52.787  1.00  0.00    -0.207 F 
ENDBRANCH  19  21
ENDBRANCH   2  12
TORSDOF 5
ENDMDL
MODEL 5
REMARK VINA RESULT:    -7.622      4.871      8.486
REMARK INTER + INTRA:         -10.940
REMARK INTER:                 -10.380
REMARK INTRA:                  -0.560
REMARK UNBOUND:                -1.091
REMARK SMILES O=C(CSc1cccc(Br)c1)N1CCc2c(ncn2-c2ccc(F)cc2)C1
REMARK SMILES IDX 1 1 2 2 3 3 4 4 5 5 6 6 11 7 7 8 9 9 8 10 10 11 12 12 13 13
REMARK SMILES IDX 27 14 14 15 16 16 15 17 17 18 19 19 18 20 20 21 21 22 26 23
REMARK SMILES IDX 22 24 25 25 23 26 24 27
REMARK H PARENT
ROOT
ATOM      1  O   UNL     1      -0.482  42.263  53.709  1.00  0.00    -0.274 OA
ATOM      2  C   UNL     1      -0.131  43.469  53.609  1.00  0.00     0.233 C 
ENDROOT
BRANCH   2   3
ATOM      3  C   UNL     1      -1.084  44.516  54.124  1.00  0.00     0.175 C 
BRANCH   3   4
ATOM      4  S   UNL     1      -1.833  43.996  55.709  1.00  0.00    -0.116 SA
BRANCH   4   5
ATOM      5  C   UNL     1      -1.039  45.257  56.710  1.00  0.00     0.009 A 
ATOM      6  C   UNL     1       0.339  45.195  56.952  1.00  0.00     0.015 A 
ATOM      7  C   UNL     1      -1.792  46.314  57.240  1.00  0.00     0.030 A 
ATOM      8  C   UNL     1       0.957  46.170  57.742  1.00  0.00     0.002 A 
ATOM      9  C   UNL     1      -1.174  47.282  58.040  1.00  0.00     0.019 A 
ATOM     10  C   UNL     1       0.200  47.208  58.292  1.00  0.00     0.016 A 
ATOM     11  Br  UNL     1      -2.209  48.696  58.797  1.00  0.00    -0.051 Br
ENDBRANCH   4   5
ENDBRANCH   3   4
ENDBRANCH   2   3
BRANCH   2  12
ATOM     12  N   UNL     1       1.123  43.799  52.959  1.00  0.00    -0.336 N 
ATOM     13  C   UNL     1       1.592  45.204  52.985  1.00  0.00     0.126 C 
ATOM     14  C   UNL     1       1.751  42.861  52.003  1.00  0.00     0.177 C 
ATOM     15  C   UNL     1       3.112  45.284  53.202  1.00  0.00     0.078 C 
ATOM     16  C   UNL     1       3.187  43.208  51.775  1.00  0.00     0.081 A 
ATOM     17  C   UNL     1       3.805  44.297  52.317  1.00  0.00     0.049 A 
ATOM     18  N   UNL     1       4.054  42.507  51.019  1.00  0.00    -0.239 NA
ATOM     19  N   UNL     1       5.094  44.293  51.925  1.00  0.00    -0.303 N 
ATOM     20  C   UNL     1       5.208  43.203  51.130  1.00  0.00     0.205 A 
BRANCH  19  21
ATOM     21  C   UNL     1       6.137  45.229  52.246  1.00  0.00     0.047 A 
ATOM     22  C   UNL     1       6.388  45.571  53.586  1.00  0.00     0.029 A 
ATOM     23  C   UNL     1       6.895  45.837  51.231  1.00  0.00     0.029 A 
ATOM     24  C   UNL     1       7.395  46.487  53.905  1.00  0.00     0.041 A 
ATOM     25  C   UNL     1       7.901  46.754  51.554  1.00  0.00     0.041 A 
ATOM     26  C   UNL     1       8.153  47.076  52.890  1.00  0.00     0.123 A 
ATOM     27  F   UNL     1       9.127  47.967  53.201  1.00  0.00    -0.207 F 
ENDBRANCH  19  21
ENDBRANCH   2  12
TORSDOF 5
ENDMDL
