MODEL 1
REMARK VINA RESULT:    -7.746      0.000      0.000
REMARK INTER + INTRA:         -11.542
REMARK INTER:                 -10.915
REMARK INTRA:                  -0.627
REMARK UNBOUND:                -0.627
REMARK SMILES O=C(Nc1cccc(OCCF)c1)c1ccc(Nc2ncccn2)cc1
REMARK SMILES IDX 4 1 5 2 6 3 7 4 8 5 13 6 3 7 1 8 2 9 14 11 15 12 26 13 16 14
REMARK SMILES IDX 25 15 17 16 18 17 19 19 20 20 24 21 21 22 23 23 22 24 9 25
REMARK SMILES IDX 10 26 11 27 12 28
REMARK H PARENT 3 10 18 18
ROOT
ATOM      1  C   UNL     1      -0.142  44.456  54.862  1.00  0.00     0.045 A 
ATOM      2  C   UNL     1      -1.327  43.814  54.472  1.00  0.00     0.026 A 
ATOM      3  C   UNL     1      -2.479  43.924  55.253  1.00  0.00     0.006 A 
ATOM      4  C   UNL     1      -2.458  44.662  56.439  1.00  0.00     0.046 A 
ATOM      5  C   UNL     1      -1.270  45.289  56.863  1.00  0.00     0.121 A 
ATOM      6  C   UNL     1      -0.120  45.179  56.069  1.00  0.00     0.072 A 
ENDROOT
BRANCH   1   7
ATOM      7  N   UNL     1       1.037  44.313  54.052  1.00  0.00    -0.322 N 
ATOM      8  O   UNL     1       0.409  45.781  52.346  1.00  0.00    -0.269 OA
ATOM      9  C   UNL     1       1.339  45.157  52.927  1.00  0.00     0.255 C 
ATOM     10  H   UNL     1       1.648  43.482  54.219  1.00  0.00     0.170 HD
BRANCH   9  11
ATOM     11  C   UNL     1       2.725  45.263  52.406  1.00  0.00     0.040 A 
ATOM     12  C   UNL     1       3.014  46.046  51.275  1.00  0.00     0.016 A 
ATOM     13  C   UNL     1       3.771  44.565  53.035  1.00  0.00     0.016 A 
ATOM     14  C   UNL     1       4.323  46.132  50.788  1.00  0.00     0.027 A 
ATOM     15  C   UNL     1       5.078  44.653  52.547  1.00  0.00     0.027 A 
ATOM     16  C   UNL     1       5.361  45.424  51.407  1.00  0.00     0.041 A 
BRANCH  16  17
ATOM     17  N   UNL     1       6.700  45.551  50.901  1.00  0.00    -0.324 N 
ATOM     18  H   UNL     1       6.905  45.171  49.949  1.00  0.00     0.170 HD
BRANCH  17  19
ATOM     19  C   UNL     1       7.804  46.065  51.660  1.00  0.00     0.227 A 
ATOM     20  N   UNL     1       7.562  46.816  52.770  1.00  0.00    -0.221 NA
ATOM     21  N   UNL     1       9.088  45.855  51.257  1.00  0.00    -0.221 NA
ATOM     22  C   UNL     1       8.583  47.343  53.495  1.00  0.00     0.117 A 
ATOM     23  C   UNL     1      10.135  46.364  51.957  1.00  0.00     0.117 A 
ATOM     24  C   UNL     1       9.902  47.124  53.102  1.00  0.00     0.040 A 
ENDBRANCH  17  19
ENDBRANCH  16  17
ENDBRANCH   9  11
ENDBRANCH   1   7
BRANCH   5  25
ATOM     25  O   UNL     1      -1.181  46.034  58.051  1.00  0.00    -0.491 OA
BRANCH  25  26
ATOM     26  C   UNL     1      -0.777  47.399  58.157  1.00  0.00     0.263 C 
BRANCH  26  27
ATOM     27  C   UNL     1       0.502  47.528  58.981  1.00  0.00     0.256 C 
ATOM     28  F   UNL     1       1.340  46.451  58.761  1.00  0.00    -0.247 F 
ENDBRANCH  26  27
ENDBRANCH  25  26
ENDBRANCH   5  25
TORSDOF 7
ENDMDL
MODEL 2
REMARK VINA RESULT:    -7.641      3.434      9.088
REMARK INTER + INTRA:         -11.395
REMARK INTER:                 -11.052
REMARK INTRA:                  -0.343
REMARK UNBOUND:                -0.627
REMARK SMILES O=C(Nc1cccc(OCCF)c1)c1ccc(Nc2ncccn2)cc1
REMARK SMILES IDX 4 1 5 2 6 3 7 4 8 5 13 6 3 7 1 8 2 9 14 11 15 12 26 13 16 14
REMARK SMILES IDX 25 15 17 16 18 17 19 19 20 20 24 21 21 22 23 23 22 24 9 25
REMARK SMILES IDX 10 26 11 27 12 28
REMARK H PARENT 3 10 18 18
ROOT
ATOM      1  C   UNL     1       5.587  45.968  51.945  1.00  0.00     0.045 A 
ATOM      2  C   UNL     1       5.869  45.281  50.756  1.00  0.00     0.026 A 
ATOM      3  C   UNL     1       7.155  45.306  50.214  1.00  0.00     0.006 A 
ATOM      4  C   UNL     1       8.170  46.030  50.843  1.00  0.00     0.046 A 
ATOM      5  C   UNL     1       7.900  46.751  52.022  1.00  0.00     0.121 A 
ATOM      6  C   UNL     1       6.608  46.714  52.563  1.00  0.00     0.072 A 
ENDROOT
BRANCH   1   7
ATOM      7  N   UNL     1       4.250  45.944  52.476  1.00  0.00    -0.322 N 
ATOM      8  O   UNL     1       4.117  43.641  52.847  1.00  0.00    -0.269 OA
ATOM      9  C   UNL     1       3.661  44.790  53.099  1.00  0.00     0.255 C 
ATOM     10  H   UNL     1       3.638  46.770  52.295  1.00  0.00     0.170 HD
BRANCH   9  11
ATOM     11  C   UNL     1       2.487  44.927  53.997  1.00  0.00     0.040 A 
ATOM     12  C   UNL     1       2.651  45.239  55.358  1.00  0.00     0.016 A 
ATOM     13  C   UNL     1       1.188  44.733  53.496  1.00  0.00     0.016 A 
ATOM     14  C   UNL     1       1.538  45.358  56.197  1.00  0.00     0.027 A 
ATOM     15  C   UNL     1       0.077  44.853  54.336  1.00  0.00     0.027 A 
ATOM     16  C   UNL     1       0.246  45.149  55.700  1.00  0.00     0.041 A 
BRANCH  16  17
ATOM     17  N   UNL     1      -0.882  45.303  56.578  1.00  0.00    -0.324 N 
ATOM     18  H   UNL     1      -1.551  44.505  56.665  1.00  0.00     0.170 HD
BRANCH  17  19
ATOM     19  C   UNL     1      -1.213  46.521  57.261  1.00  0.00     0.227 A 
ATOM     20  N   UNL     1      -0.494  46.893  58.355  1.00  0.00    -0.221 NA
ATOM     21  N   UNL     1      -2.268  47.283  56.859  1.00  0.00    -0.221 NA
ATOM     22  C   UNL     1      -0.798  48.025  59.043  1.00  0.00     0.117 A 
ATOM     23  C   UNL     1      -2.602  48.423  57.519  1.00  0.00     0.117 A 
ATOM     24  C   UNL     1      -1.866  48.821  58.633  1.00  0.00     0.040 A 
ENDBRANCH  17  19
ENDBRANCH  16  17
ENDBRANCH   9  11
ENDBRANCH   1   7
BRANCH   5  25
ATOM     25  O   UNL     1       8.874  47.508  52.695  1.00  0.00    -0.491 OA
BRANCH  25  26
ATOM     26  C   UNL     1       9.908  46.991  53.533  1.00  0.00     0.263 C 
BRANCH  26  27
ATOM     27  C   UNL     1       9.859  47.629  54.919  1.00  0.00     0.256 C 
ATOM     28  F   UNL     1      10.904  47.181  55.705  1.00  0.00    -0.247 F 
ENDBRANCH  26  27
ENDBRANCH  25  26
ENDBRANCH   5  25
TORSDOF 7
ENDMDL
MODEL 3
REMARK VINA RESULT:    -7.594      3.454      9.371
REMARK INTER + INTRA:         -11.328
REMARK INTER:                 -10.787
REMARK INTRA:                  -0.541
REMARK UNBOUND:                -0.627
REMARK SMILES O=C(Nc1cccc(OCCF)c1)c1ccc(Nc2ncccn2)cc1
REMARK SMILES IDX 4 1 5 2 6 3 7 4 8 5 13 6 3 7 1 8 2 9 14 11 15 12 26 13 16 14
REMARK SMILES IDX 25 15 17 16 18 17 19 19 20 20 24 21 21 22 23 23 22 24 9 25
REMARK SMILES IDX 10 26 11 27 12 28
REMARK H PARENT 3 10 18 18
ROOT
ATOM      1  C   UNL     1       5.626  44.211  50.763  1.00  0.00     0.045 A 
ATOM      2  C   UNL     1       6.153  43.224  49.918  1.00  0.00     0.026 A 
ATOM      3  C   UNL     1       7.436  43.365  49.384  1.00  0.00     0.006 A 
ATOM      4  C   UNL     1       8.199  44.498  49.674  1.00  0.00     0.046 A 
ATOM      5  C   UNL     1       7.674  45.514  50.497  1.00  0.00     0.121 A 
ATOM      6  C   UNL     1       6.389  45.361  51.035  1.00  0.00     0.072 A 
ENDROOT
BRANCH   1   7
ATOM      7  N   UNL     1       4.295  44.054  51.287  1.00  0.00    -0.322 N 
ATOM      8  O   UNL     1       4.844  44.215  53.552  1.00  0.00    -0.269 OA
ATOM      9  C   UNL     1       3.949  44.276  52.665  1.00  0.00     0.255 C 
ATOM     10  H   UNL     1       3.567  43.646  50.658  1.00  0.00     0.170 HD
BRANCH   9  11
ATOM     11  C   UNL     1       2.542  44.527  53.064  1.00  0.00     0.040 A 
ATOM     12  C   UNL     1       1.515  44.571  52.105  1.00  0.00     0.016 A 
ATOM     13  C   UNL     1       2.218  44.740  54.416  1.00  0.00     0.016 A 
ATOM     14  C   UNL     1       0.193  44.816  52.491  1.00  0.00     0.027 A 
ATOM     15  C   UNL     1       0.897  44.985  54.800  1.00  0.00     0.027 A 
ATOM     16  C   UNL     1      -0.125  45.043  53.836  1.00  0.00     0.041 A 
BRANCH  16  17
ATOM     17  N   UNL     1      -1.495  45.268  54.209  1.00  0.00    -0.324 N 
ATOM     18  H   UNL     1      -2.101  45.809  53.552  1.00  0.00     0.170 HD
BRANCH  17  19
ATOM     19  C   UNL     1      -2.058  44.896  55.476  1.00  0.00     0.227 A 
ATOM     20  N   UNL     1      -2.318  43.585  55.734  1.00  0.00    -0.221 NA
ATOM     21  N   UNL     1      -2.382  45.841  56.402  1.00  0.00    -0.221 NA
ATOM     22  C   UNL     1      -2.878  43.200  56.910  1.00  0.00     0.117 A 
ATOM     23  C   UNL     1      -2.942  45.495  57.590  1.00  0.00     0.117 A 
ATOM     24  C   UNL     1      -3.202  44.155  57.872  1.00  0.00     0.040 A 
ENDBRANCH  17  19
ENDBRANCH  16  17
ENDBRANCH   9  11
ENDBRANCH   1   7
BRANCH   5  25
ATOM     25  O   UNL     1       8.386  46.683  50.816  1.00  0.00    -0.491 OA
BRANCH  25  26
ATOM     26  C   UNL     1       8.595  47.207  52.128  1.00  0.00     0.263 C 
BRANCH  26  27
ATOM     27  C   UNL     1       9.826  46.581  52.778  1.00  0.00     0.256 C 
ATOM     28  F   UNL     1      10.326  47.399  53.774  1.00  0.00    -0.247 F 
ENDBRANCH  26  27
ENDBRANCH  25  26
ENDBRANCH   5  25
TORSDOF 7
ENDMDL
MODEL 4
REMARK VINA RESULT:    -7.523      6.483      9.082
REMARK INTER + INTRA:         -11.228
REMARK INTER:                 -10.829
REMARK INTRA:                  -0.399
REMARK UNBOUND:                -0.627
REMARK SMILES O=C(Nc1cccc(OCCF)c1)c1ccc(Nc2ncccn2)cc1
REMARK SMILES IDX 4 1 5 2 6 3 7 4 8 5 13 6 3 7 1 8 2 9 14 11 15 12 26 13 16 14
REMARK SMILES IDX 25 15 17 16 18 17 19 19 20 20 24 21 21 22 23 23 22 24 9 25
REMARK SMILES IDX 10 26 11 27 12 28
REMARK H PARENT 3 10 18 18
ROOT
ATOM      1  C   UNL     1       3.578  40.294  47.925  1.00  0.00     0.045 A 
ATOM      2  C   UNL     1       3.088  39.018  48.236  1.00  0.00     0.026 A 
ATOM      3  C   UNL     1       2.738  38.129  47.219  1.00  0.00     0.006 A 
ATOM      4  C   UNL     1       2.856  38.509  45.880  1.00  0.00     0.046 A 
ATOM      5  C   UNL     1       3.319  39.797  45.547  1.00  0.00     0.121 A 
ATOM      6  C   UNL     1       3.675  40.680  46.575  1.00  0.00     0.072 A 
ENDROOT
BRANCH   1   7
ATOM      7  N   UNL     1       3.916  41.200  48.990  1.00  0.00    -0.322 N 
ATOM      8  O   UNL     1       6.221  40.823  48.985  1.00  0.00    -0.269 OA
ATOM      9  C   UNL     1       5.264  41.572  49.323  1.00  0.00     0.255 C 
ATOM     10  H   UNL     1       3.149  41.514  49.626  1.00  0.00     0.170 HD
BRANCH   9  11
ATOM     11  C   UNL     1       5.542  42.802  50.106  1.00  0.00     0.040 A 
ATOM     12  C   UNL     1       4.765  43.135  51.229  1.00  0.00     0.016 A 
ATOM     13  C   UNL     1       6.586  43.663  49.722  1.00  0.00     0.016 A 
ATOM     14  C   UNL     1       5.031  44.301  51.955  1.00  0.00     0.027 A 
ATOM     15  C   UNL     1       6.850  44.827  50.449  1.00  0.00     0.027 A 
ATOM     16  C   UNL     1       6.061  45.165  51.562  1.00  0.00     0.041 A 
BRANCH  16  17
ATOM     17  N   UNL     1       6.329  46.343  52.341  1.00  0.00    -0.324 N 
ATOM     18  H   UNL     1       5.579  47.068  52.410  1.00  0.00     0.170 HD
BRANCH  17  19
ATOM     19  C   UNL     1       7.599  46.645  52.938  1.00  0.00     0.227 A 
ATOM     20  N   UNL     1       7.650  47.464  54.024  1.00  0.00    -0.221 NA
ATOM     21  N   UNL     1       8.755  46.163  52.404  1.00  0.00    -0.221 NA
ATOM     22  C   UNL     1       8.838  47.794  54.596  1.00  0.00     0.117 A 
ATOM     23  C   UNL     1       9.961  46.469  52.949  1.00  0.00     0.117 A 
ATOM     24  C   UNL     1      10.027  47.297  54.068  1.00  0.00     0.040 A 
ENDBRANCH  17  19
ENDBRANCH  16  17
ENDBRANCH   9  11
ENDBRANCH   1   7
BRANCH   5  25
ATOM     25  O   UNL     1       3.449  40.243  44.221  1.00  0.00    -0.491 OA
BRANCH  25  26
ATOM     26  C   UNL     1       4.354  39.725  43.246  1.00  0.00     0.263 C 
BRANCH  26  27
ATOM     27  C   UNL     1       5.782  40.189  43.524  1.00  0.00     0.256 C 
ATOM     28  F   UNL     1       5.834  41.563  43.664  1.00  0.00    -0.247 F 
ENDBRANCH  26  27
ENDBRANCH  25  26
ENDBRANCH   5  25
TORSDOF 7
ENDMDL
MODEL 5
REMARK VINA RESULT:    -7.420      3.490      9.624
REMARK INTER + INTRA:         -11.083
REMARK INTER:                 -10.362
REMARK INTRA:                  -0.721
REMARK UNBOUND:                -0.627
REMARK SMILES O=C(Nc1cccc(OCCF)c1)c1ccc(Nc2ncccn2)cc1
REMARK SMILES IDX 4 1 5 2 6 3 7 4 8 5 13 6 3 7 1 8 2 9 14 11 15 12 26 13 16 14
REMARK SMILES IDX 25 15 17 16 18 17 19 19 20 20 24 21 21 22 23 23 22 24 9 25
REMARK SMILES IDX 10 26 11 27 12 28
REMARK H PARENT 3 10 18 18
ROOT
ATOM      1  C   UNL     1       7.303  46.447  53.737  1.00  0.00     0.045 A 
ATOM      2  C   UNL     1       8.141  47.188  54.583  1.00  0.00     0.026 A 
ATOM      3  C   UNL     1       9.431  47.531  54.175  1.00  0.00     0.006 A 
ATOM      4  C   UNL     1       9.904  47.126  52.925  1.00  0.00     0.046 A 
ATOM      5  C   UNL     1       9.088  46.357  52.073  1.00  0.00     0.121 A 
ATOM      6  C   UNL     1       7.792  46.023  52.488  1.00  0.00     0.072 A 
ENDROOT
BRANCH   1   7
ATOM      7  N   UNL     1       5.984  46.089  54.187  1.00  0.00    -0.322 N 
ATOM      8  O   UNL     1       4.896  48.044  53.514  1.00  0.00    -0.269 OA
ATOM      9  C   UNL     1       4.799  46.834  53.857  1.00  0.00     0.255 C 
ATOM     10  H   UNL     1       5.899  45.315  54.883  1.00  0.00     0.170 HD
BRANCH   9  11
ATOM     11  C   UNL     1       3.456  46.212  53.963  1.00  0.00     0.040 A 
ATOM     12  C   UNL     1       2.513  46.346  52.929  1.00  0.00     0.016 A 
ATOM     13  C   UNL     1       3.103  45.486  55.114  1.00  0.00     0.016 A 
ATOM     14  C   UNL     1       1.247  45.762  53.044  1.00  0.00     0.027 A 
ATOM     15  C   UNL     1       1.837  44.903  55.227  1.00  0.00     0.027 A 
ATOM     16  C   UNL     1       0.892  45.052  54.197  1.00  0.00     0.041 A 
BRANCH  16  17
ATOM     17  N   UNL     1      -0.407  44.441  54.278  1.00  0.00    -0.324 N 
ATOM     18  H   UNL     1      -0.788  43.979  53.422  1.00  0.00     0.170 HD
BRANCH  17  19
ATOM     19  C   UNL     1      -1.266  44.520  55.425  1.00  0.00     0.227 A 
ATOM     20  N   UNL     1      -1.985  43.427  55.800  1.00  0.00    -0.221 NA
ATOM     21  N   UNL     1      -1.410  45.687  56.112  1.00  0.00    -0.221 NA
ATOM     22  C   UNL     1      -2.830  43.474  56.863  1.00  0.00     0.117 A 
ATOM     23  C   UNL     1      -2.243  45.774  57.181  1.00  0.00     0.117 A 
ATOM     24  C   UNL     1      -2.976  44.658  57.583  1.00  0.00     0.040 A 
ENDBRANCH  17  19
ENDBRANCH  16  17
ENDBRANCH   9  11
ENDBRANCH   1   7
BRANCH   5  25
ATOM     25  O   UNL     1       9.510  45.908  50.810  1.00  0.00    -0.491 OA
BRANCH  25  26
ATOM     26  C   UNL     1       9.589  44.548  50.385  1.00  0.00     0.263 C 
BRANCH  26  27
ATOM     27  C   UNL     1       8.540  44.246  49.318  1.00  0.00     0.256 C 
ATOM     28  F   UNL     1       7.313  43.977  49.895  1.00  0.00    -0.247 F 
ENDBRANCH  26  27
ENDBRANCH  25  26
ENDBRANCH   5  25
TORSDOF 7
ENDMDL
