ligand_87_conformer_2_docked
     RDKit          3D

 42 46  0  0  0  0  0  0  0  0999 V2000
   -1.5500   44.5410   57.0110 C   0  0  0  0  0  0  0  0  0  0  0  0
   -0.3140   45.1780   56.8740 C   0  0  0  0  0  0  0  0  0  0  0  0
    0.3410   45.1820   55.6400 C   0  0  0  0  0  0  0  0  0  0  0  0
   -0.2490   44.5660   54.5200 C   0  0  0  0  0  0  0  0  0  0  0  0
   -1.4760   43.8880   54.6780 C   0  0  0  0  0  0  0  0  0  0  0  0
   -2.1290   43.8960   55.9160 C   0  0  0  0  0  0  0  0  0  0  0  0
   -2.0590   43.2150   53.5980 O   0  0  0  0  0  0  0  0  0  0  0  0
   -1.3520   42.9860   52.3800 C   0  0  0  0  0  0  0  0  0  0  0  0
   -0.5010   44.2060   52.0280 C   0  0  0  0  0  0  0  0  0  0  0  0
    0.4650   44.5390   53.1800 C   0  0  1  0  0  0  0  0  0  0  0  0
    1.1010   45.8320   52.9100 N   0  0  0  0  0  0  0  0  0  0  0  0
    2.3410   45.9340   52.2040 C   0  0  0  0  0  0  0  0  0  0  0  0
    2.4320   45.9830   50.8630 N   0  0  0  0  0  0  0  0  0  0  0  0
    3.7250   46.0820   50.5910 N   0  0  0  0  0  0  0  0  0  0  0  0
    4.3650   46.0870   51.7780 C   0  0  0  0  0  0  0  0  0  0  0  0
    5.8250   46.1860   51.9260 C   0  0  0  0  0  0  0  0  0  0  0  0
    6.6800   45.7740   50.8930 C   0  0  0  0  0  0  0  0  0  0  0  0
    8.0620   45.8790   51.0580 C   0  0  0  0  0  0  0  0  0  0  0  0
    8.5850   46.3920   52.2520 C   0  0  0  0  0  0  0  0  0  0  0  0
    9.9690   46.5120   52.4500 C   0  0  0  0  0  0  0  0  0  0  0  0
   10.4600   47.0280   53.6550 C   0  0  0  0  0  0  0  0  0  0  0  0
    9.5740   47.4260   54.6620 C   0  0  0  0  0  0  0  0  0  0  0  0
    8.1930   47.3120   54.4710 C   0  0  0  0  0  0  0  0  0  0  0  0
    7.6930   46.7950   53.2700 C   0  0  0  0  0  0  0  0  0  0  0  0
    6.3500   46.6830   53.0800 N   0  0  0  0  0  0  0  0  0  0  0  0
    3.5180   45.9970   52.7760 O   0  0  0  0  0  0  0  0  0  0  0  0
   -2.0672   44.5476   57.9818 H   0  0  0  0  0  0  0  0  0  0  0  0
    0.1446   45.6777   57.7400 H   0  0  0  0  0  0  0  0  0  0  0  0
    1.3226   45.6689   55.5430 H   0  0  0  0  0  0  0  0  0  0  0  0
   -3.1009   43.3929   56.0267 H   0  0  0  0  0  0  0  0  0  0  0  0
   -0.6988   42.1089   52.4981 H   0  0  0  0  0  0  0  0  0  0  0  0
   -2.0765   42.8077   51.5718 H   0  0  0  0  0  0  0  0  0  0  0  0
    0.0798   43.9922   51.1186 H   0  0  0  0  0  0  0  0  0  0  0  0
   -1.1649   45.0668   51.8598 H   0  0  0  0  0  0  0  0  0  0  0  0
    1.2302   43.7509   53.2375 H   0  0  0  0  0  0  0  0  0  0  0  0
    0.5740   46.7100   53.1200 H   0  0  0  0  0  0  0  0  0  0  0  0
    6.2636   45.3705   49.9582 H   0  0  0  0  0  0  0  0  0  0  0  0
    8.7391   45.5596   50.2521 H   0  0  0  0  0  0  0  0  0  0  0  0
   10.6673   46.2009   51.6591 H   0  0  0  0  0  0  0  0  0  0  0  0
   11.5450   47.1208   53.8106 H   0  0  0  0  0  0  0  0  0  0  0  0
    9.9649   47.8301   55.6075 H   0  0  0  0  0  0  0  0  0  0  0  0
    7.5000   47.6286   55.2644 H   0  0  0  0  0  0  0  0  0  0  0  0
  1  2  2  0
  2  3  1  0
  3  4  2  0
  4  5  1  0
  5  6  2  0
  5  7  1  0
  7  8  1  0
  8  9  1  0
  9 10  1  0
 10 11  1  0
 11 12  1  0
 12 13  2  0
 13 14  1  0
 14 15  2  0
 15 16  1  0
 16 17  2  0
 17 18  1  0
 18 19  2  0
 19 20  1  0
 20 21  2  0
 21 22  1  0
 22 23  2  0
 23 24  1  0
 24 25  2  0
 15 26  1  0
  6  1  1  0
 26 12  1  0
 10  4  1  0
 25 16  1  0
 24 19  1  0
  1 27  1  0
  2 28  1  0
  3 29  1  0
  6 30  1  0
  8 31  1  0
  8 32  1  0
  9 33  1  0
  9 34  1  0
 10 35  1  1
 11 36  1  0
 17 37  1  0
 18 38  1  0
 20 39  1  0
 21 40  1  0
 22 41  1  0
 23 42  1  0
M  END
>  <meeko>  (1) 
{"is_sidechain": [false], "free_energy": -9.829, "intermolecular_energy": -11.553, "internal_energy": -0.476}

$$$$
ligand_87_conformer_2_docked
     RDKit          3D

 42 46  0  0  0  0  0  0  0  0999 V2000
   -3.4490   43.8740   55.7340 C   0  0  0  0  0  0  0  0  0  0  0  0
   -3.0510   43.9380   54.3960 C   0  0  0  0  0  0  0  0  0  0  0  0
   -1.7530   44.3380   54.0690 C   0  0  0  0  0  0  0  0  0  0  0  0
   -0.8300   44.6560   55.0820 C   0  0  0  0  0  0  0  0  0  0  0  0
   -1.2520   44.6290   56.4280 C   0  0  0  0  0  0  0  0  0  0  0  0
   -2.5520   44.2200   56.7480 C   0  0  0  0  0  0  0  0  0  0  0  0
   -0.3760   44.9970   57.4550 O   0  0  0  0  0  0  0  0  0  0  0  0
    0.8780   45.6240   57.1890 C   0  0  0  0  0  0  0  0  0  0  0  0
    1.5220   45.0070   55.9480 C   0  0  0  0  0  0  0  0  0  0  0  0
    0.5750   45.1190   54.7380 C   0  0  1  0  0  0  0  0  0  0  0  0
    1.1210   44.3270   53.6320 N   0  0  0  0  0  0  0  0  0  0  0  0
    2.1510   44.8310   52.7760 C   0  0  0  0  0  0  0  0  0  0  0  0
    1.9150   45.3650   51.5640 N   0  0  0  0  0  0  0  0  0  0  0  0
    3.1000   45.7170   51.0870 N   0  0  0  0  0  0  0  0  0  0  0  0
    4.0050   45.3810   52.0280 C   0  0  0  0  0  0  0  0  0  0  0  0
    5.4530   45.6050   51.8960 C   0  0  0  0  0  0  0  0  0  0  0  0
    6.1130   45.3340   50.6880 C   0  0  0  0  0  0  0  0  0  0  0  0
    7.4870   45.5570   50.5870 C   0  0  0  0  0  0  0  0  0  0  0  0
    8.1970   46.0440   51.6920 C   0  0  0  0  0  0  0  0  0  0  0  0
    9.5800   46.2790   51.6250 C   0  0  0  0  0  0  0  0  0  0  0  0
   10.2600   46.7660   52.7460 C   0  0  0  0  0  0  0  0  0  0  0  0
    9.5660   47.0210   53.9350 C   0  0  0  0  0  0  0  0  0  0  0  0
    8.1880   46.7910   54.0090 C   0  0  0  0  0  0  0  0  0  0  0  0
    7.4990   46.3030   52.8920 C   0  0  0  0  0  0  0  0  0  0  0  0
    6.1590   46.0790   52.9600 N   0  0  0  0  0  0  0  0  0  0  0  0
    3.4280   44.8350   53.0710 O   0  0  0  0  0  0  0  0  0  0  0  0
   -4.4691   43.5510   55.9892 H   0  0  0  0  0  0  0  0  0  0  0  0
   -3.7610   43.6729   53.5988 H   0  0  0  0  0  0  0  0  0  0  0  0
   -1.4509   44.4047   53.0134 H   0  0  0  0  0  0  0  0  0  0  0  0
   -2.8682   44.1709   57.8004 H   0  0  0  0  0  0  0  0  0  0  0  0
    0.7183   46.6991   57.0194 H   0  0  0  0  0  0  0  0  0  0  0  0
    1.5444   45.4755   58.0515 H   0  0  0  0  0  0  0  0  0  0  0  0
    2.4594   45.5375   55.7246 H   0  0  0  0  0  0  0  0  0  0  0  0
    1.7259   43.9439   56.1436 H   0  0  0  0  0  0  0  0  0  0  0  0
    0.5035   46.1759   54.4416 H   0  0  0  0  0  0  0  0  0  0  0  0
    0.8480   43.3220   53.5440 H   0  0  0  0  0  0  0  0  0  0  0  0
    5.5506   44.9478   49.8251 H   0  0  0  0  0  0  0  0  0  0  0  0
    8.0111   45.3509   49.6421 H   0  0  0  0  0  0  0  0  0  0  0  0
   10.1278   46.0803   50.6920 H   0  0  0  0  0  0  0  0  0  0  0  0
   11.3434   46.9492   52.6934 H   0  0  0  0  0  0  0  0  0  0  0  0
   10.1060   47.4034   54.8138 H   0  0  0  0  0  0  0  0  0  0  0  0
    7.6459   46.9935   54.9445 H   0  0  0  0  0  0  0  0  0  0  0  0
  1  2  2  0
  2  3  1  0
  3  4  2  0
  4  5  1  0
  5  6  2  0
  5  7  1  0
  7  8  1  0
  8  9  1  0
  9 10  1  0
 10 11  1  0
 11 12  1  0
 12 13  2  0
 13 14  1  0
 14 15  2  0
 15 16  1  0
 16 17  2  0
 17 18  1  0
 18 19  2  0
 19 20  1  0
 20 21  2  0
 21 22  1  0
 22 23  2  0
 23 24  1  0
 24 25  2  0
 15 26  1  0
  6  1  1  0
 26 12  1  0
 10  4  1  0
 25 16  1  0
 24 19  1  0
  1 27  1  0
  2 28  1  0
  3 29  1  0
  6 30  1  0
  8 31  1  0
  8 32  1  0
  9 33  1  0
  9 34  1  0
 10 35  1  6
 11 36  1  0
 17 37  1  0
 18 38  1  0
 20 39  1  0
 21 40  1  0
 22 41  1  0
 23 42  1  0
M  END
>  <meeko>  (2) 
{"is_sidechain": [false], "free_energy": -9.661, "intermolecular_energy": -11.375, "internal_energy": -0.456}

$$$$
ligand_87_conformer_2_docked
     RDKit          3D

 42 46  0  0  0  0  0  0  0  0999 V2000
   -2.8060   43.9510   50.4560 C   0  0  0  0  0  0  0  0  0  0  0  0
   -2.5750   45.2350   50.9560 C   0  0  0  0  0  0  0  0  0  0  0  0
   -1.6350   45.4340   51.9710 C   0  0  0  0  0  0  0  0  0  0  0  0
   -0.8980   44.3490   52.4810 C   0  0  0  0  0  0  0  0  0  0  0  0
   -1.1680   43.0500   52.0000 C   0  0  0  0  0  0  0  0  0  0  0  0
   -2.1060   42.8600   50.9780 C   0  0  0  0  0  0  0  0  0  0  0  0
   -0.4950   41.9430   52.5280 O   0  0  0  0  0  0  0  0  0  0  0  0
    0.3050   42.0370   53.7060 C   0  0  0  0  0  0  0  0  0  0  0  0
    1.0760   43.3570   53.7150 C   0  0  0  0  0  0  0  0  0  0  0  0
    0.1060   44.5480   53.6020 C   0  0  1  0  0  0  0  0  0  0  0  0
    0.8800   45.7740   53.3890 N   0  0  0  0  0  0  0  0  0  0  0  0
    2.0450   45.8000   52.5580 C   0  0  0  0  0  0  0  0  0  0  0  0
    2.0040   45.7130   51.2160 N   0  0  0  0  0  0  0  0  0  0  0  0
    3.2630   45.7780   50.8100 N   0  0  0  0  0  0  0  0  0  0  0  0
    4.0160   45.9010   51.9220 C   0  0  0  0  0  0  0  0  0  0  0  0
    5.4830   46.0090   51.9160 C   0  0  0  0  0  0  0  0  0  0  0  0
    6.2270   45.6060   50.7960 C   0  0  0  0  0  0  0  0  0  0  0  0
    7.6180   45.7200   50.8140 C   0  0  0  0  0  0  0  0  0  0  0  0
    8.2610   46.2310   51.9480 C   0  0  0  0  0  0  0  0  0  0  0  0
    9.6570   46.3590   52.0000 C   0  0  0  0  0  0  0  0  0  0  0  0
   10.2700   46.8750   53.1480 C   0  0  0  0  0  0  0  0  0  0  0  0
    9.4930   47.2630   54.2450 C   0  0  0  0  0  0  0  0  0  0  0  0
    8.1000   47.1410   54.2010 C   0  0  0  0  0  0  0  0  0  0  0  0
    7.4790   46.6250   53.0570 C   0  0  0  0  0  0  0  0  0  0  0  0
    6.1250   46.5050   53.0090 N   0  0  0  0  0  0  0  0  0  0  0  0
    3.2720   45.9150   53.0020 O   0  0  0  0  0  0  0  0  0  0  0  0
   -3.5396   43.7987   49.6506 H   0  0  0  0  0  0  0  0  0  0  0  0
   -3.1340   46.0910   50.5500 H   0  0  0  0  0  0  0  0  0  0  0  0
   -1.4703   46.4444   52.3735 H   0  0  0  0  0  0  0  0  0  0  0  0
   -2.2923   41.8496   50.5851 H   0  0  0  0  0  0  0  0  0  0  0  0
   -0.3453   41.9897   54.5919 H   0  0  0  0  0  0  0  0  0  0  0  0
    1.0212   41.2022   53.7217 H   0  0  0  0  0  0  0  0  0  0  0  0
    1.6425   43.4391   54.6543 H   0  0  0  0  0  0  0  0  0  0  0  0
    1.7627   43.3742   52.8558 H   0  0  0  0  0  0  0  0  0  0  0  0
   -0.4672   44.6262   54.5376 H   0  0  0  0  0  0  0  0  0  0  0  0
    0.5020   46.6810   53.7440 H   0  0  0  0  0  0  0  0  0  0  0  0
    5.7166   45.2026   49.9090 H   0  0  0  0  0  0  0  0  0  0  0  0
    8.2079   45.4091   49.9391 H   0  0  0  0  0  0  0  0  0  0  0  0
   10.2699   46.0540   51.1390 H   0  0  0  0  0  0  0  0  0  0  0  0
   11.3647   46.9756   53.1877 H   0  0  0  0  0  0  0  0  0  0  0  0
    9.9794   47.6656   55.1457 H   0  0  0  0  0  0  0  0  0  0  0  0
    7.4929   47.4503   55.0646 H   0  0  0  0  0  0  0  0  0  0  0  0
  1  2  2  0
  2  3  1  0
  3  4  2  0
  4  5  1  0
  5  6  2  0
  5  7  1  0
  7  8  1  0
  8  9  1  0
  9 10  1  0
 10 11  1  0
 11 12  1  0
 12 13  2  0
 13 14  1  0
 14 15  2  0
 15 16  1  0
 16 17  2  0
 17 18  1  0
 18 19  2  0
 19 20  1  0
 20 21  2  0
 21 22  1  0
 22 23  2  0
 23 24  1  0
 24 25  2  0
 15 26  1  0
  6  1  1  0
 26 12  1  0
 10  4  1  0
 25 16  1  0
 24 19  1  0
  1 27  1  0
  2 28  1  0
  3 29  1  0
  6 30  1  0
  8 31  1  0
  8 32  1  0
  9 33  1  0
  9 34  1  0
 10 35  1  1
 11 36  1  0
 17 37  1  0
 18 38  1  0
 20 39  1  0
 21 40  1  0
 22 41  1  0
 23 42  1  0
M  END
>  <meeko>  (3) 
{"is_sidechain": [false], "free_energy": -9.53, "intermolecular_energy": -11.122, "internal_energy": -0.554}

$$$$
ligand_87_conformer_2_docked
     RDKit          3D

 42 46  0  0  0  0  0  0  0  0999 V2000
   10.1680   47.1460   53.8010 C   0  0  0  0  0  0  0  0  0  0  0  0
    9.0120   47.4970   54.5030 C   0  0  0  0  0  0  0  0  0  0  0  0
    7.7530   47.1860   53.9810 C   0  0  0  0  0  0  0  0  0  0  0  0
    7.6400   46.4970   52.7590 C   0  0  0  0  0  0  0  0  0  0  0  0
    8.8120   46.1850   52.0370 C   0  0  0  0  0  0  0  0  0  0  0  0
   10.0690   46.4940   52.5710 C   0  0  0  0  0  0  0  0  0  0  0  0
    8.7300   45.5540   50.7910 O   0  0  0  0  0  0  0  0  0  0  0  0
    7.4920   45.4080   50.0980 C   0  0  0  0  0  0  0  0  0  0  0  0
    6.3710   45.0880   51.0850 C   0  0  0  0  0  0  0  0  0  0  0  0
    6.2780   46.1790   52.1690 C   0  0  1  0  0  0  0  0  0  0  0  0
    5.3550   45.7330   53.2150 N   0  0  0  0  0  0  0  0  0  0  0  0
    3.9480   45.9800   53.1410 C   0  0  0  0  0  0  0  0  0  0  0  0
    3.4100   47.0340   52.5010 N   0  0  0  0  0  0  0  0  0  0  0  0
    2.0990   46.9160   52.6460 N   0  0  0  0  0  0  0  0  0  0  0  0
    1.8950   45.7950   53.3680 C   0  0  0  0  0  0  0  0  0  0  0  0
    0.5660   45.2940   53.7540 C   0  0  0  0  0  0  0  0  0  0  0  0
   -0.3810   44.9510   52.7780 C   0  0  0  0  0  0  0  0  0  0  0  0
   -1.6340   44.4760   53.1690 C   0  0  0  0  0  0  0  0  0  0  0  0
   -1.9370   44.3480   54.5310 C   0  0  0  0  0  0  0  0  0  0  0  0
   -3.1860   43.8740   54.9590 C   0  0  0  0  0  0  0  0  0  0  0  0
   -3.4580   43.7580   56.3270 C   0  0  0  0  0  0  0  0  0  0  0  0
   -2.4870   44.1130   57.2690 C   0  0  0  0  0  0  0  0  0  0  0  0
   -1.2380   44.5840   56.8510 C   0  0  0  0  0  0  0  0  0  0  0  0
   -0.9580   44.7050   55.4850 C   0  0  0  0  0  0  0  0  0  0  0  0
    0.2550   45.1630   55.0730 N   0  0  0  0  0  0  0  0  0  0  0  0
    3.0290   45.2140   53.6760 O   0  0  0  0  0  0  0  0  0  0  0  0
   11.1575   47.3839   54.2184 H   0  0  0  0  0  0  0  0  0  0  0  0
    9.0927   48.0189   55.4679 H   0  0  0  0  0  0  0  0  0  0  0  0
    6.8457   47.4814   54.5283 H   0  0  0  0  0  0  0  0  0  0  0  0
   10.9811   46.2221   52.0195 H   0  0  0  0  0  0  0  0  0  0  0  0
    7.2569   46.3452   49.5722 H   0  0  0  0  0  0  0  0  0  0  0  0
    7.5800   44.5841   49.3745 H   0  0  0  0  0  0  0  0  0  0  0  0
    5.4156   45.0344   50.5425 H   0  0  0  0  0  0  0  0  0  0  0  0
    6.5874   44.1239   51.5685 H   0  0  0  0  0  0  0  0  0  0  0  0
    5.9008   47.1043   51.7089 H   0  0  0  0  0  0  0  0  0  0  0  0
    5.7100   45.1050   53.9720 H   0  0  0  0  0  0  0  0  0  0  0  0
   -0.1377   45.0557   51.7104 H   0  0  0  0  0  0  0  0  0  0  0  0
   -2.3816   44.2029   52.4098 H   0  0  0  0  0  0  0  0  0  0  0  0
   -3.9511   43.5937   54.2200 H   0  0  0  0  0  0  0  0  0  0  0  0
   -4.4377   43.3868   56.6621 H   0  0  0  0  0  0  0  0  0  0  0  0
   -2.7065   44.0214   58.3430 H   0  0  0  0  0  0  0  0  0  0  0  0
   -0.4763   44.8591   57.5954 H   0  0  0  0  0  0  0  0  0  0  0  0
  1  2  2  0
  2  3  1  0
  3  4  2  0
  4  5  1  0
  5  6  2  0
  5  7  1  0
  7  8  1  0
  8  9  1  0
  9 10  1  0
 10 11  1  0
 11 12  1  0
 12 13  2  0
 13 14  1  0
 14 15  2  0
 15 16  1  0
 16 17  2  0
 17 18  1  0
 18 19  2  0
 19 20  1  0
 20 21  2  0
 21 22  1  0
 22 23  2  0
 23 24  1  0
 24 25  2  0
 15 26  1  0
  6  1  1  0
 26 12  1  0
 10  4  1  0
 25 16  1  0
 24 19  1  0
  1 27  1  0
  2 28  1  0
  3 29  1  0
  6 30  1  0
  8 31  1  0
  8 32  1  0
  9 33  1  0
  9 34  1  0
 10 35  1  6
 11 36  1  0
 17 37  1  0
 18 38  1  0
 20 39  1  0
 21 40  1  0
 22 41  1  0
 23 42  1  0
M  END
>  <meeko>  (4) 
{"is_sidechain": [false], "free_energy": -9.287, "intermolecular_energy": -10.934, "internal_energy": -0.457}

$$$$
ligand_87_conformer_2_docked
     RDKit          3D

 42 46  0  0  0  0  0  0  0  0999 V2000
   -3.5690   43.1830   51.9380 C   0  0  0  0  0  0  0  0  0  0  0  0
   -2.5190   42.8510   51.0770 C   0  0  0  0  0  0  0  0  0  0  0  0
   -1.1950   43.0490   51.4760 C   0  0  0  0  0  0  0  0  0  0  0  0
   -0.9070   43.5610   52.7560 C   0  0  0  0  0  0  0  0  0  0  0  0
   -1.9740   43.9330   53.6010 C   0  0  0  0  0  0  0  0  0  0  0  0
   -3.2970   43.7250   53.1960 C   0  0  0  0  0  0  0  0  0  0  0  0
   -1.7210   44.5000   54.8550 O   0  0  0  0  0  0  0  0  0  0  0  0
   -0.4170   44.9360   55.2380 C   0  0  0  0  0  0  0  0  0  0  0  0
    0.6370   43.9590   54.7200 C   0  0  0  0  0  0  0  0  0  0  0  0
    0.5260   43.8070   53.1910 C   0  0  1  0  0  0  0  0  0  0  0  0
    1.3920   42.7070   52.7580 N   0  0  0  0  0  0  0  0  0  0  0  0
    2.6650   42.9380   52.1480 C   0  0  0  0  0  0  0  0  0  0  0  0
    3.1360   42.2190   51.1130 N   0  0  0  0  0  0  0  0  0  0  0  0
    4.3250   42.7290   50.8290 N   0  0  0  0  0  0  0  0  0  0  0  0
    4.5270   43.7350   51.7030 C   0  0  0  0  0  0  0  0  0  0  0  0
    5.7360   44.5730   51.7300 C   0  0  0  0  0  0  0  0  0  0  0  0
    6.4900   44.7810   50.5660 C   0  0  0  0  0  0  0  0  0  0  0  0
    7.6320   45.5810   50.6180 C   0  0  0  0  0  0  0  0  0  0  0  0
    8.0180   46.1680   51.8290 C   0  0  0  0  0  0  0  0  0  0  0  0
    9.1610   46.9790   51.9160 C   0  0  0  0  0  0  0  0  0  0  0  0
    9.5200   47.5510   53.1410 C   0  0  0  0  0  0  0  0  0  0  0  0
    8.7420   47.3170   54.2820 C   0  0  0  0  0  0  0  0  0  0  0  0
    7.6010   46.5130   54.2030 C   0  0  0  0  0  0  0  0  0  0  0  0
    7.2350   45.9350   52.9810 C   0  0  0  0  0  0  0  0  0  0  0  0
    6.1250   45.1520   52.9000 N   0  0  0  0  0  0  0  0  0  0  0  0
    3.5080   43.8700   52.5180 O   0  0  0  0  0  0  0  0  0  0  0  0
   -4.6102   43.0172   51.6244 H   0  0  0  0  0  0  0  0  0  0  0  0
   -2.7358   42.4329   50.0829 H   0  0  0  0  0  0  0  0  0  0  0  0
   -0.3733   42.8038   50.7870 H   0  0  0  0  0  0  0  0  0  0  0  0
   -4.1251   43.9891   53.8702 H   0  0  0  0  0  0  0  0  0  0  0  0
   -0.2279   45.9334   54.8143 H   0  0  0  0  0  0  0  0  0  0  0  0
   -0.3597   44.9784   56.3357 H   0  0  0  0  0  0  0  0  0  0  0  0
    1.6379   44.3377   54.9745 H   0  0  0  0  0  0  0  0  0  0  0  0
    0.4729   42.9772   55.1882 H   0  0  0  0  0  0  0  0  0  0  0  0
    0.8502   44.7456   52.7178 H   0  0  0  0  0  0  0  0  0  0  0  0
    1.1350   41.7270   53.0180 H   0  0  0  0  0  0  0  0  0  0  0  0
    6.1829   44.3162   49.6175 H   0  0  0  0  0  0  0  0  0  0  0  0
    8.2280   45.7502   49.7091 H   0  0  0  0  0  0  0  0  0  0  0  0
    9.7737   47.1644   51.0214 H   0  0  0  0  0  0  0  0  0  0  0  0
   10.4156   48.1862   53.2084 H   0  0  0  0  0  0  0  0  0  0  0  0
    9.0297   47.7673   55.2435 H   0  0  0  0  0  0  0  0  0  0  0  0
    6.9908   46.3344   55.1006 H   0  0  0  0  0  0  0  0  0  0  0  0
  1  2  2  0
  2  3  1  0
  3  4  2  0
  4  5  1  0
  5  6  2  0
  5  7  1  0
  7  8  1  0
  8  9  1  0
  9 10  1  0
 10 11  1  0
 11 12  1  0
 12 13  2  0
 13 14  1  0
 14 15  2  0
 15 16  1  0
 16 17  2  0
 17 18  1  0
 18 19  2  0
 19 20  1  0
 20 21  2  0
 21 22  1  0
 22 23  2  0
 23 24  1  0
 24 25  2  0
 15 26  1  0
  6  1  1  0
 26 12  1  0
 10  4  1  0
 25 16  1  0
 24 19  1  0
  1 27  1  0
  2 28  1  0
  3 29  1  0
  6 30  1  0
  8 31  1  0
  8 32  1  0
  9 33  1  0
  9 34  1  0
 10 35  1  6
 11 36  1  0
 17 37  1  0
 18 38  1  0
 20 39  1  0
 21 40  1  0
 22 41  1  0
 23 42  1  0
M  END
>  <meeko>  (5) 
{"is_sidechain": [false], "free_energy": -8.949, "intermolecular_energy": -10.48, "internal_energy": -0.515}

$$$$
