MODEL 1
REMARK VINA RESULT:    -8.838      0.000      0.000
REMARK INTER + INTRA:         -12.067
REMARK INTER:                 -10.905
REMARK INTRA:                  -1.162
REMARK UNBOUND:                -1.162
REMARK SMILES Cn1ncc(C(=O)N2CCC(Oc3ccc(Cl)cc3)CC2)c1C(F)F
REMARK SMILES IDX 6 1 7 2 8 3 9 4 10 5 11 6 20 7 21 8 5 9 2 10 3 11 22 12 4 13
REMARK SMILES IDX 1 14 23 15 24 16 25 17 12 18 13 19 14 20 19 21 15 22 18 23
REMARK SMILES IDX 16 24 17 25
REMARK H PARENT
ROOT
ATOM      1  C   UNL     1       4.016  45.066  51.508  1.00  0.00     0.257 C 
ATOM      2  O   UNL     1       2.947  45.360  50.909  1.00  0.00    -0.269 OA
ATOM      3  N   UNL     1       4.257  45.574  52.835  1.00  0.00    -0.338 N 
ATOM      4  C   UNL     1       3.645  46.856  53.216  1.00  0.00     0.123 C 
ATOM      5  C   UNL     1       3.994  47.252  54.658  1.00  0.00     0.067 C 
ATOM      6  C   UNL     1       5.467  46.957  54.960  1.00  0.00     0.176 C 
ATOM      7  C   UNL     1       5.771  45.446  54.816  1.00  0.00     0.067 C 
ATOM      8  C   UNL     1       4.812  44.693  53.874  1.00  0.00     0.123 C 
ENDROOT
BRANCH   1   9
ATOM      9  C   UNL     1       4.981  44.178  50.835  1.00  0.00     0.087 A 
ATOM     10  N   UNL     1       6.004  42.447  49.911  1.00  0.00    -0.266 N 
ATOM     11  N   UNL     1       6.760  43.509  49.678  1.00  0.00    -0.180 NA
ATOM     12  C   UNL     1       4.924  42.804  50.644  1.00  0.00     0.117 A 
ATOM     13  C   UNL     1       6.162  44.577  50.239  1.00  0.00     0.149 A 
ATOM     14  C   UNL     1       6.356  41.107  49.451  1.00  0.00     0.174 C 
BRANCH  12  15
ATOM     15  C   UNL     1       3.863  41.857  51.144  1.00  0.00     0.391 C 
ATOM     16  F   UNL     1       3.712  41.975  52.513  1.00  0.00    -0.203 F 
ATOM     17  F   UNL     1       2.643  42.136  50.559  1.00  0.00    -0.203 F 
ENDBRANCH  12  15
ENDBRANCH   1   9
BRANCH   6  18
ATOM     18  O   UNL     1       6.285  47.727  54.073  1.00  0.00    -0.490 OA
BRANCH  18  19
ATOM     19  C   UNL     1       7.508  47.314  53.518  1.00  0.00     0.119 A 
ATOM     20  C   UNL     1       7.549  47.029  52.148  1.00  0.00     0.048 A 
ATOM     21  C   UNL     1       8.685  47.177  54.283  1.00  0.00     0.048 A 
ATOM     22  C   UNL     1       8.737  46.606  51.545  1.00  0.00     0.024 A 
ATOM     23  C   UNL     1       9.872  46.754  53.677  1.00  0.00     0.024 A 
ATOM     24  C   UNL     1       9.899  46.468  52.310  1.00  0.00     0.041 A 
ATOM     25  Cl  UNL     1      11.390  45.936  51.553  1.00  0.00    -0.084 Cl
ENDBRANCH  18  19
ENDBRANCH   6  18
TORSDOF 4
ENDMDL
MODEL 2
REMARK VINA RESULT:    -8.161      2.932      4.801
REMARK INTER + INTRA:         -11.231
REMARK INTER:                 -10.364
REMARK INTRA:                  -0.867
REMARK UNBOUND:                -1.162
REMARK SMILES Cn1ncc(C(=O)N2CCC(Oc3ccc(Cl)cc3)CC2)c1C(F)F
REMARK SMILES IDX 6 1 7 2 8 3 9 4 10 5 11 6 20 7 21 8 5 9 2 10 3 11 22 12 4 13
REMARK SMILES IDX 1 14 23 15 24 16 25 17 12 18 13 19 14 20 19 21 15 22 18 23
REMARK SMILES IDX 16 24 17 25
REMARK H PARENT
ROOT
ATOM      1  C   UNL     1       4.823  47.552  53.784  1.00  0.00     0.257 C 
ATOM      2  O   UNL     1       4.320  48.698  53.934  1.00  0.00    -0.269 OA
ATOM      3  N   UNL     1       6.216  47.419  53.444  1.00  0.00    -0.338 N 
ATOM      4  C   UNL     1       6.858  48.500  52.680  1.00  0.00     0.123 C 
ATOM      5  C   UNL     1       8.340  48.207  52.405  1.00  0.00     0.067 C 
ATOM      6  C   UNL     1       8.540  46.737  52.019  1.00  0.00     0.176 C 
ATOM      7  C   UNL     1       8.093  45.796  53.165  1.00  0.00     0.067 C 
ATOM      8  C   UNL     1       7.047  46.408  54.117  1.00  0.00     0.123 C 
ENDROOT
BRANCH   1   9
ATOM      9  C   UNL     1       3.963  46.373  53.993  1.00  0.00     0.087 A 
ATOM     10  N   UNL     1       2.558  44.683  53.735  1.00  0.00    -0.266 N 
ATOM     11  N   UNL     1       3.060  44.582  54.957  1.00  0.00    -0.180 NA
ATOM     12  C   UNL     1       3.056  45.782  53.123  1.00  0.00     0.117 A 
ATOM     13  C   UNL     1       3.915  45.606  55.141  1.00  0.00     0.149 A 
ATOM     14  C   UNL     1       1.585  43.738  53.198  1.00  0.00     0.174 C 
BRANCH  12  15
ATOM     15  C   UNL     1       2.679  46.252  51.741  1.00  0.00     0.391 C 
ATOM     16  F   UNL     1       3.620  47.140  51.256  1.00  0.00    -0.203 F 
ATOM     17  F   UNL     1       2.611  45.187  50.864  1.00  0.00    -0.203 F 
ENDBRANCH  12  15
ENDBRANCH   1   9
BRANCH   6  18
ATOM     18  O   UNL     1       7.800  46.468  50.824  1.00  0.00    -0.490 OA
BRANCH  18  19
ATOM     19  C   UNL     1       7.264  45.223  50.453  1.00  0.00     0.119 A 
ATOM     20  C   UNL     1       8.043  44.382  49.649  1.00  0.00     0.048 A 
ATOM     21  C   UNL     1       5.983  44.794  50.857  1.00  0.00     0.048 A 
ATOM     22  C   UNL     1       7.555  43.136  49.242  1.00  0.00     0.024 A 
ATOM     23  C   UNL     1       5.499  43.547  50.449  1.00  0.00     0.024 A 
ATOM     24  C   UNL     1       6.283  42.718  49.642  1.00  0.00     0.041 A 
ATOM     25  Cl  UNL     1       5.671  41.155  49.132  1.00  0.00    -0.084 Cl
ENDBRANCH  18  19
ENDBRANCH   6  18
TORSDOF 4
ENDMDL
MODEL 3
REMARK VINA RESULT:    -8.111      1.511      1.923
REMARK INTER + INTRA:         -11.170
REMARK INTER:                 -10.816
REMARK INTRA:                  -0.354
REMARK UNBOUND:                -1.162
REMARK SMILES Cn1ncc(C(=O)N2CCC(Oc3ccc(Cl)cc3)CC2)c1C(F)F
REMARK SMILES IDX 6 1 7 2 8 3 9 4 10 5 11 6 20 7 21 8 5 9 2 10 3 11 22 12 4 13
REMARK SMILES IDX 1 14 23 15 24 16 25 17 12 18 13 19 14 20 19 21 15 22 18 23
REMARK SMILES IDX 16 24 17 25
REMARK H PARENT
ROOT
ATOM      1  C   UNL     1       3.157  44.480  52.112  1.00  0.00     0.257 C 
ATOM      2  O   UNL     1       2.005  44.748  51.675  1.00  0.00    -0.269 OA
ATOM      3  N   UNL     1       3.720  45.268  53.177  1.00  0.00    -0.338 N 
ATOM      4  C   UNL     1       3.300  46.672  53.309  1.00  0.00     0.123 C 
ATOM      5  C   UNL     1       3.987  47.368  54.492  1.00  0.00     0.067 C 
ATOM      6  C   UNL     1       5.466  46.973  54.570  1.00  0.00     0.176 C 
ATOM      7  C   UNL     1       5.622  45.447  54.785  1.00  0.00     0.067 C 
ATOM      8  C   UNL     1       4.427  44.612  54.288  1.00  0.00     0.123 C 
ENDROOT
BRANCH   1   9
ATOM      9  C   UNL     1       3.883  43.337  51.530  1.00  0.00     0.087 A 
ATOM     10  N   UNL     1       5.389  42.029  50.573  1.00  0.00    -0.266 N 
ATOM     11  N   UNL     1       4.405  41.244  50.985  1.00  0.00    -0.180 NA
ATOM     12  C   UNL     1       5.096  43.319  50.855  1.00  0.00     0.117 A 
ATOM     13  C   UNL     1       3.470  42.019  51.565  1.00  0.00     0.149 A 
ATOM     14  C   UNL     1       6.574  41.522  49.888  1.00  0.00     0.174 C 
BRANCH  12  15
ATOM     15  C   UNL     1       5.955  44.504  50.493  1.00  0.00     0.391 C 
ATOM     16  F   UNL     1       6.806  44.188  49.451  1.00  0.00    -0.203 F 
ATOM     17  F   UNL     1       5.174  45.571  50.093  1.00  0.00    -0.203 F 
ENDBRANCH  12  15
ENDBRANCH   1   9
BRANCH   6  18
ATOM     18  O   UNL     1       6.120  47.386  53.367  1.00  0.00    -0.490 OA
BRANCH  18  19
ATOM     19  C   UNL     1       7.446  47.091  53.010  1.00  0.00     0.119 A 
ATOM     20  C   UNL     1       7.703  46.699  51.691  1.00  0.00     0.048 A 
ATOM     21  C   UNL     1       8.517  47.173  53.923  1.00  0.00     0.048 A 
ATOM     22  C   UNL     1       9.003  46.385  51.283  1.00  0.00     0.024 A 
ATOM     23  C   UNL     1       9.817  46.858  53.513  1.00  0.00     0.024 A 
ATOM     24  C   UNL     1      10.061  46.464  52.195  1.00  0.00     0.041 A 
ATOM     25  Cl  UNL     1      11.691  46.069  51.683  1.00  0.00    -0.084 Cl
ENDBRANCH  18  19
ENDBRANCH   6  18
TORSDOF 4
ENDMDL
MODEL 4
REMARK VINA RESULT:    -7.869      3.023      4.784
REMARK INTER + INTRA:         -10.870
REMARK INTER:                  -9.667
REMARK INTRA:                  -1.204
REMARK UNBOUND:                -1.162
REMARK SMILES Cn1ncc(C(=O)N2CCC(Oc3ccc(Cl)cc3)CC2)c1C(F)F
REMARK SMILES IDX 6 1 7 2 8 3 9 4 10 5 11 6 20 7 21 8 5 9 2 10 3 11 22 12 4 13
REMARK SMILES IDX 1 14 23 15 24 16 25 17 12 18 13 19 14 20 19 21 15 22 18 23
REMARK SMILES IDX 16 24 17 25
REMARK H PARENT
ROOT
ATOM      1  C   UNL     1       2.793  43.075  52.642  1.00  0.00     0.257 C 
ATOM      2  O   UNL     1       3.308  41.928  52.735  1.00  0.00    -0.269 OA
ATOM      3  N   UNL     1       3.401  44.067  51.793  1.00  0.00    -0.338 N 
ATOM      4  C   UNL     1       4.853  44.001  51.565  1.00  0.00     0.123 C 
ATOM      5  C   UNL     1       5.340  45.122  50.637  1.00  0.00     0.067 C 
ATOM      6  C   UNL     1       4.651  46.448  50.980  1.00  0.00     0.176 C 
ATOM      7  C   UNL     1       3.117  46.339  50.798  1.00  0.00     0.067 C 
ATOM      8  C   UNL     1       2.564  44.907  50.922  1.00  0.00     0.123 C 
ENDROOT
BRANCH   1   9
ATOM      9  C   UNL     1       1.555  43.355  53.392  1.00  0.00     0.087 A 
ATOM     10  N   UNL     1       0.002  44.248  54.691  1.00  0.00    -0.266 N 
ATOM     11  N   UNL     1      -0.559  43.221  54.072  1.00  0.00    -0.180 NA
ATOM     12  C   UNL     1       1.303  44.346  54.332  1.00  0.00     0.117 A 
ATOM     13  C   UNL     1       0.370  42.654  53.279  1.00  0.00     0.149 A 
ATOM     14  C   UNL     1      -0.717  45.091  55.641  1.00  0.00     0.174 C 
BRANCH  12  15
ATOM     15  C   UNL     1       2.278  45.363  54.868  1.00  0.00     0.391 C 
ATOM     16  F   UNL     1       3.515  44.785  55.085  1.00  0.00    -0.203 F 
ATOM     17  F   UNL     1       2.447  46.399  53.971  1.00  0.00    -0.203 F 
ENDBRANCH  12  15
ENDBRANCH   1   9
BRANCH   6  18
ATOM     18  O   UNL     1       4.980  46.806  52.325  1.00  0.00    -0.490 OA
BRANCH  18  19
ATOM     19  C   UNL     1       6.278  46.946  52.844  1.00  0.00     0.119 A 
ATOM     20  C   UNL     1       6.611  46.222  53.995  1.00  0.00     0.048 A 
ATOM     21  C   UNL     1       7.248  47.782  52.254  1.00  0.00     0.048 A 
ATOM     22  C   UNL     1       7.885  46.330  54.559  1.00  0.00     0.024 A 
ATOM     23  C   UNL     1       8.522  47.889  52.821  1.00  0.00     0.024 A 
ATOM     24  C   UNL     1       8.842  47.164  53.973  1.00  0.00     0.041 A 
ATOM     25  Cl  UNL     1      10.440  47.301  54.682  1.00  0.00    -0.084 Cl
ENDBRANCH  18  19
ENDBRANCH   6  18
TORSDOF 4
ENDMDL
MODEL 5
REMARK VINA RESULT:    -7.635      3.788      5.788
REMARK INTER + INTRA:         -10.582
REMARK INTER:                  -9.432
REMARK INTRA:                  -1.150
REMARK UNBOUND:                -1.162
REMARK SMILES Cn1ncc(C(=O)N2CCC(Oc3ccc(Cl)cc3)CC2)c1C(F)F
REMARK SMILES IDX 6 1 7 2 8 3 9 4 10 5 11 6 20 7 21 8 5 9 2 10 3 11 22 12 4 13
REMARK SMILES IDX 1 14 23 15 24 16 25 17 12 18 13 19 14 20 19 21 15 22 18 23
REMARK SMILES IDX 16 24 17 25
REMARK H PARENT
ROOT
ATOM      1  C   UNL     1       0.470  43.054  53.681  1.00  0.00     0.257 C 
ATOM      2  O   UNL     1       0.335  41.807  53.804  1.00  0.00    -0.269 OA
ATOM      3  N   UNL     1       1.371  43.583  52.688  1.00  0.00    -0.338 N 
ATOM      4  C   UNL     1       2.536  42.774  52.297  1.00  0.00     0.123 C 
ATOM      5  C   UNL     1       3.389  43.475  51.230  1.00  0.00     0.067 C 
ATOM      6  C   UNL     1       3.530  44.968  51.544  1.00  0.00     0.176 C 
ATOM      7  C   UNL     1       2.148  45.667  51.554  1.00  0.00     0.067 C 
ATOM      8  C   UNL     1       0.965  44.727  51.858  1.00  0.00     0.123 C 
ENDROOT
BRANCH   1   9
ATOM      9  C   UNL     1      -0.329  43.939  54.546  1.00  0.00     0.087 A 
ATOM     10  N   UNL     1      -1.007  45.523  55.935  1.00  0.00    -0.266 N 
ATOM     11  N   UNL     1      -2.095  44.913  55.489  1.00  0.00    -0.180 NA
ATOM     12  C   UNL     1       0.096  44.939  55.412  1.00  0.00     0.117 A 
ATOM     13  C   UNL     1      -1.708  43.937  54.646  1.00  0.00     0.149 A 
ATOM     14  C   UNL     1      -1.053  46.633  56.881  1.00  0.00     0.174 C 
BRANCH  12  15
ATOM     15  C   UNL     1       1.517  45.328  55.727  1.00  0.00     0.391 C 
ATOM     16  F   UNL     1       2.320  44.207  55.817  1.00  0.00    -0.203 F 
ATOM     17  F   UNL     1       2.033  46.139  54.734  1.00  0.00    -0.203 F 
ENDBRANCH  12  15
ENDBRANCH   1   9
BRANCH   6  18
ATOM     18  O   UNL     1       4.184  45.116  52.808  1.00  0.00    -0.490 OA
BRANCH  18  19
ATOM     19  C   UNL     1       5.463  45.658  53.013  1.00  0.00     0.119 A 
ATOM     20  C   UNL     1       6.314  45.777  51.907  1.00  0.00     0.048 A 
ATOM     21  C   UNL     1       5.919  46.082  54.278  1.00  0.00     0.048 A 
ATOM     22  C   UNL     1       7.602  46.301  52.054  1.00  0.00     0.024 A 
ATOM     23  C   UNL     1       7.207  46.605  54.423  1.00  0.00     0.024 A 
ATOM     24  C   UNL     1       8.049  46.715  53.313  1.00  0.00     0.041 A 
ATOM     25  Cl  UNL     1       9.666  47.371  53.497  1.00  0.00    -0.084 Cl
ENDBRANCH  18  19
ENDBRANCH   6  18
TORSDOF 4
ENDMDL
