ligand_91_conformer_4_docked
     RDKit          3D

 38 40  0  0  0  0  0  0  0  0999 V2000
    4.8440   48.2530   54.5290 O   0  0  0  0  0  0  0  0  0  0  0  0
    5.4000   47.1240   54.4280 C   0  0  0  0  0  0  0  0  0  0  0  0
    4.7930   45.9770   55.0490 N   0  0  0  0  0  0  0  0  0  0  0  0
    3.4880   46.0410   55.7060 C   0  0  0  0  0  0  0  0  0  0  0  0
    2.4450   45.2670   54.8960 C   0  0  0  0  0  0  0  0  0  0  0  0
    2.8360   45.2160   53.4510 C   0  0  0  0  0  0  0  0  0  0  0  0
    2.4510   46.1800   52.5250 C   0  0  0  0  0  0  0  0  0  0  0  0
    3.1490   45.7780   51.0510 S   0  0  0  0  0  0  0  0  0  0  0  0
    3.9200   44.4030   51.6490 C   0  0  0  0  0  0  0  0  0  0  0  0
    4.7830   43.4840   50.8710 C   0  0  0  0  0  0  0  0  0  0  0  0
    4.4620   42.1160   50.7860 C   0  0  0  0  0  0  0  0  0  0  0  0
    5.2710   41.2420   50.0540 C   0  0  0  0  0  0  0  0  0  0  0  0
    6.4070   41.7220   49.3980 C   0  0  0  0  0  0  0  0  0  0  0  0
    6.7360   43.0770   49.4750 C   0  0  0  0  0  0  0  0  0  0  0  0
    5.9310   43.9550   50.2060 C   0  0  0  0  0  0  0  0  0  0  0  0
    3.6550   44.2420   52.9660 N   0  0  0  0  0  0  0  0  0  0  0  0
    6.6760   47.0090   53.6830 C   0  0  0  0  0  0  0  0  0  0  0  0
    6.6940   46.7910   52.2930 C   0  0  0  0  0  0  0  0  0  0  0  0
    7.9070   46.6910   51.6060 C   0  0  0  0  0  0  0  0  0  0  0  0
    9.1160   46.8130   52.2960 C   0  0  0  0  0  0  0  0  0  0  0  0
   10.2910   46.7170   51.6250 F   0  0  0  0  0  0  0  0  0  0  0  0
    9.1130   47.0420   53.6750 C   0  0  0  0  0  0  0  0  0  0  0  0
   10.2840   47.1650   54.3460 F   0  0  0  0  0  0  0  0  0  0  0  0
    7.9010   47.1440   54.3650 C   0  0  0  0  0  0  0  0  0  0  0  0
    5.2930   45.0600   55.0570 H   0  0  0  0  0  0  0  0  0  0  0  0
    3.5661   45.6009   56.7111 H   0  0  0  0  0  0  0  0  0  0  0  0
    3.1755   47.0932   55.7777 H   0  0  0  0  0  0  0  0  0  0  0  0
    2.3705   44.2417   55.2874 H   0  0  0  0  0  0  0  0  0  0  0  0
    1.4748   45.7778   54.9845 H   0  0  0  0  0  0  0  0  0  0  0  0
    1.8059   47.0488   52.7224 H   0  0  0  0  0  0  0  0  0  0  0  0
    3.5681   41.7320   51.2993 H   0  0  0  0  0  0  0  0  0  0  0  0
    5.0126   40.1744   49.9945 H   0  0  0  0  0  0  0  0  0  0  0  0
    7.0419   41.0333   48.8213 H   0  0  0  0  0  0  0  0  0  0  0  0
    7.6312   43.4543   48.9589 H   0  0  0  0  0  0  0  0  0  0  0  0
    6.1961   45.0211   50.2621 H   0  0  0  0  0  0  0  0  0  0  0  0
    5.7460   46.6986   51.7428 H   0  0  0  0  0  0  0  0  0  0  0  0
    7.9100   46.5159   50.5200 H   0  0  0  0  0  0  0  0  0  0  0  0
    7.9043   47.3311   55.4490 H   0  0  0  0  0  0  0  0  0  0  0  0
  1  2  2  0
  2  3  1  0
  3  4  1  0
  4  5  1  0
  5  6  1  0
  6  7  2  0
  7  8  1  0
  8  9  1  0
  9 10  1  0
 10 11  2  0
 11 12  1  0
 12 13  2  0
 13 14  1  0
 14 15  2  0
  9 16  2  0
  2 17  1  0
 17 18  2  0
 18 19  1  0
 19 20  2  0
 20 21  1  0
 20 22  1  0
 22 23  1  0
 22 24  2  0
 16  6  1  0
 24 17  1  0
 15 10  1  0
  3 25  1  0
  4 26  1  0
  4 27  1  0
  5 28  1  0
  5 29  1  0
  7 30  1  0
 11 31  1  0
 12 32  1  0
 13 33  1  0
 14 34  1  0
 15 35  1  0
 18 36  1  0
 19 37  1  0
 24 38  1  0
M  END
>  <meeko>  (1) 
{"is_sidechain": [false], "free_energy": -9.64, "intermolecular_energy": -12.458, "internal_energy": -1.293}

$$$$
ligand_91_conformer_4_docked
     RDKit          3D

 38 40  0  0  0  0  0  0  0  0999 V2000
    5.3910   47.8720   54.8400 O   0  0  0  0  0  0  0  0  0  0  0  0
    5.9030   46.7550   54.5520 C   0  0  0  0  0  0  0  0  0  0  0  0
    5.2620   45.5460   54.9940 N   0  0  0  0  0  0  0  0  0  0  0  0
    3.9700   45.5500   55.6780 C   0  0  0  0  0  0  0  0  0  0  0  0
    2.8370   45.7870   54.6760 C   0  0  0  0  0  0  0  0  0  0  0  0
    2.7800   44.6730   53.6760 C   0  0  0  0  0  0  0  0  0  0  0  0
    1.6500   43.8830   53.4840 C   0  0  0  0  0  0  0  0  0  0  0  0
    1.9890   42.8060   52.2400 S   0  0  0  0  0  0  0  0  0  0  0  0
    3.5500   43.3930   51.9890 C   0  0  0  0  0  0  0  0  0  0  0  0
    4.5110   42.8960   50.9770 C   0  0  0  0  0  0  0  0  0  0  0  0
    5.5600   43.7230   50.5330 C   0  0  0  0  0  0  0  0  0  0  0  0
    6.4710   43.2620   49.5780 C   0  0  0  0  0  0  0  0  0  0  0  0
    6.3470   41.9720   49.0560 C   0  0  0  0  0  0  0  0  0  0  0  0
    5.3100   41.1420   49.4890 C   0  0  0  0  0  0  0  0  0  0  0  0
    4.3960   41.5980   50.4430 C   0  0  0  0  0  0  0  0  0  0  0  0
    3.8230   44.4060   52.8420 N   0  0  0  0  0  0  0  0  0  0  0  0
    7.1640   46.7160   53.7730 C   0  0  0  0  0  0  0  0  0  0  0  0
    8.3870   47.1170   54.3440 C   0  0  0  0  0  0  0  0  0  0  0  0
    9.5670   47.0680   53.5960 C   0  0  0  0  0  0  0  0  0  0  0  0
    9.5430   46.6140   52.2740 C   0  0  0  0  0  0  0  0  0  0  0  0
   10.6910   46.5670   51.5540 F   0  0  0  0  0  0  0  0  0  0  0  0
    8.3370   46.2020   51.7000 C   0  0  0  0  0  0  0  0  0  0  0  0
    8.3110   45.7570   50.4200 F   0  0  0  0  0  0  0  0  0  0  0  0
    7.1550   46.2480   52.4460 C   0  0  0  0  0  0  0  0  0  0  0  0
    5.7280   44.6230   54.8470 H   0  0  0  0  0  0  0  0  0  0  0  0
    3.8189   44.5794   56.1732 H   0  0  0  0  0  0  0  0  0  0  0  0
    3.9629   46.3593   56.4230 H   0  0  0  0  0  0  0  0  0  0  0  0
    1.8803   45.8376   55.2165 H   0  0  0  0  0  0  0  0  0  0  0  0
    3.0230   46.7324   54.1454 H   0  0  0  0  0  0  0  0  0  0  0  0
    0.7063   43.9515   54.0450 H   0  0  0  0  0  0  0  0  0  0  0  0
    5.6637   44.7395   50.9405 H   0  0  0  0  0  0  0  0  0  0  0  0
    7.2869   43.9161   49.2369 H   0  0  0  0  0  0  0  0  0  0  0  0
    7.0649   41.6104   48.3051 H   0  0  0  0  0  0  0  0  0  0  0  0
    5.2125   40.1264   49.0778 H   0  0  0  0  0  0  0  0  0  0  0  0
    3.5818   40.9389   50.7788 H   0  0  0  0  0  0  0  0  0  0  0  0
    8.4141   47.4710   55.3851 H   0  0  0  0  0  0  0  0  0  0  0  0
   10.5171   47.3876   54.0489 H   0  0  0  0  0  0  0  0  0  0  0  0
    6.2101   45.9155   51.9915 H   0  0  0  0  0  0  0  0  0  0  0  0
  1  2  2  0
  2  3  1  0
  3  4  1  0
  4  5  1  0
  5  6  1  0
  6  7  2  0
  7  8  1  0
  8  9  1  0
  9 10  1  0
 10 11  2  0
 11 12  1  0
 12 13  2  0
 13 14  1  0
 14 15  2  0
  9 16  2  0
  2 17  1  0
 17 18  2  0
 18 19  1  0
 19 20  2  0
 20 21  1  0
 20 22  1  0
 22 23  1  0
 22 24  2  0
 16  6  1  0
 24 17  1  0
 15 10  1  0
  3 25  1  0
  4 26  1  0
  4 27  1  0
  5 28  1  0
  5 29  1  0
  7 30  1  0
 11 31  1  0
 12 32  1  0
 13 33  1  0
 14 34  1  0
 15 35  1  0
 18 36  1  0
 19 37  1  0
 24 38  1  0
M  END
>  <meeko>  (2) 
{"is_sidechain": [false], "free_energy": -9.336, "intermolecular_energy": -12.199, "internal_energy": -1.158}

$$$$
ligand_91_conformer_4_docked
     RDKit          3D

 38 40  0  0  0  0  0  0  0  0999 V2000
    3.4810   42.6640   52.4240 O   0  0  0  0  0  0  0  0  0  0  0  0
    3.7950   43.6180   51.6590 C   0  0  0  0  0  0  0  0  0  0  0  0
    2.9420   44.7730   51.5780 N   0  0  0  0  0  0  0  0  0  0  0  0
    1.7700   44.9410   52.4360 C   0  0  0  0  0  0  0  0  0  0  0  0
    2.0100   46.0580   53.4540 C   0  0  0  0  0  0  0  0  0  0  0  0
    3.3950   45.9630   54.0180 C   0  0  0  0  0  0  0  0  0  0  0  0
    3.6870   45.3000   55.2060 C   0  0  0  0  0  0  0  0  0  0  0  0
    5.3490   45.3790   55.4380 S   0  0  0  0  0  0  0  0  0  0  0  0
    5.6320   46.2440   54.0180 C   0  0  0  0  0  0  0  0  0  0  0  0
    6.9530   46.6940   53.5240 C   0  0  0  0  0  0  0  0  0  0  0  0
    8.1330   46.1560   54.0710 C   0  0  0  0  0  0  0  0  0  0  0  0
    9.3840   46.5760   53.6110 C   0  0  0  0  0  0  0  0  0  0  0  0
    9.4730   47.5360   52.6010 C   0  0  0  0  0  0  0  0  0  0  0  0
    8.3100   48.0780   52.0490 C   0  0  0  0  0  0  0  0  0  0  0  0
    7.0560   47.6620   52.5060 C   0  0  0  0  0  0  0  0  0  0  0  0
    4.4720   46.4750   53.3610 N   0  0  0  0  0  0  0  0  0  0  0  0
    5.0320   43.5180   50.8480 C   0  0  0  0  0  0  0  0  0  0  0  0
    5.3220   42.3630   50.0960 C   0  0  0  0  0  0  0  0  0  0  0  0
    6.4910   42.2900   49.3330 C   0  0  0  0  0  0  0  0  0  0  0  0
    7.3800   43.3680   49.3050 C   0  0  0  0  0  0  0  0  0  0  0  0
    8.5120   43.2910   48.5620 F   0  0  0  0  0  0  0  0  0  0  0  0
    7.0980   44.5240   50.0370 C   0  0  0  0  0  0  0  0  0  0  0  0
    7.9570   45.5720   50.0080 F   0  0  0  0  0  0  0  0  0  0  0  0
    5.9290   44.6010   50.8010 C   0  0  0  0  0  0  0  0  0  0  0  0
    3.1390   45.5210   50.8770 H   0  0  0  0  0  0  0  0  0  0  0  0
    0.8996   45.1979   51.8144 H   0  0  0  0  0  0  0  0  0  0  0  0
    1.5848   44.0004   52.9754 H   0  0  0  0  0  0  0  0  0  0  0  0
    1.8866   47.0323   52.9586 H   0  0  0  0  0  0  0  0  0  0  0  0
    1.2835   45.9555   54.2736 H   0  0  0  0  0  0  0  0  0  0  0  0
    2.9608   44.8122   55.8728 H   0  0  0  0  0  0  0  0  0  0  0  0
    8.0700   45.3991   54.8667 H   0  0  0  0  0  0  0  0  0  0  0  0
   10.3002   46.1495   54.0454 H   0  0  0  0  0  0  0  0  0  0  0  0
   10.4586   47.8653   52.2402 H   0  0  0  0  0  0  0  0  0  0  0  0
    8.3810   48.8338   51.2530 H   0  0  0  0  0  0  0  0  0  0  0  0
    6.1439   48.0934   52.0678 H   0  0  0  0  0  0  0  0  0  0  0  0
    4.6241   41.5129   50.1092 H   0  0  0  0  0  0  0  0  0  0  0  0
    6.7118   41.3817   48.7531 H   0  0  0  0  0  0  0  0  0  0  0  0
    5.7089   45.5163   51.3701 H   0  0  0  0  0  0  0  0  0  0  0  0
  1  2  2  0
  2  3  1  0
  3  4  1  0
  4  5  1  0
  5  6  1  0
  6  7  2  0
  7  8  1  0
  8  9  1  0
  9 10  1  0
 10 11  2  0
 11 12  1  0
 12 13  2  0
 13 14  1  0
 14 15  2  0
  9 16  2  0
  2 17  1  0
 17 18  2  0
 18 19  1  0
 19 20  2  0
 20 21  1  0
 20 22  1  0
 22 23  1  0
 22 24  2  0
 16  6  1  0
 24 17  1  0
 15 10  1  0
  3 25  1  0
  4 26  1  0
  4 27  1  0
  5 28  1  0
  5 29  1  0
  7 30  1  0
 11 31  1  0
 12 32  1  0
 13 33  1  0
 14 34  1  0
 15 35  1  0
 18 36  1  0
 19 37  1  0
 24 38  1  0
M  END
>  <meeko>  (3) 
{"is_sidechain": [false], "free_energy": -9.139, "intermolecular_energy": -11.529, "internal_energy": -1.575}

$$$$
ligand_91_conformer_4_docked
     RDKit          3D

 38 40  0  0  0  0  0  0  0  0999 V2000
    9.0590   44.1090   48.9670 O   0  0  0  0  0  0  0  0  0  0  0  0
    8.1480   44.4190   49.7840 C   0  0  0  0  0  0  0  0  0  0  0  0
    6.8650   43.7750   49.6920 N   0  0  0  0  0  0  0  0  0  0  0  0
    6.6010   42.6860   48.7530 C   0  0  0  0  0  0  0  0  0  0  0  0
    5.9120   41.5210   49.4680 C   0  0  0  0  0  0  0  0  0  0  0  0
    4.8040   42.0240   50.3430 C   0  0  0  0  0  0  0  0  0  0  0  0
    3.4890   41.5830   50.2320 C   0  0  0  0  0  0  0  0  0  0  0  0
    2.5940   42.3470   51.4300 S   0  0  0  0  0  0  0  0  0  0  0  0
    3.9120   43.1990   52.0480 C   0  0  0  0  0  0  0  0  0  0  0  0
    3.8810   44.1340   53.1950 C   0  0  0  0  0  0  0  0  0  0  0  0
    2.6500   44.5580   53.7280 C   0  0  0  0  0  0  0  0  0  0  0  0
    2.6120   45.4410   54.8120 C   0  0  0  0  0  0  0  0  0  0  0  0
    3.8010   45.9090   55.3760 C   0  0  0  0  0  0  0  0  0  0  0  0
    5.0300   45.4950   54.8570 C   0  0  0  0  0  0  0  0  0  0  0  0
    5.0730   44.6130   53.7730 C   0  0  0  0  0  0  0  0  0  0  0  0
    5.0360   42.9090   51.3520 N   0  0  0  0  0  0  0  0  0  0  0  0
    8.4170   45.4520   50.8120 C   0  0  0  0  0  0  0  0  0  0  0  0
    9.7260   45.7120   51.2610 C   0  0  0  0  0  0  0  0  0  0  0  0
    9.9610   46.6950   52.2280 C   0  0  0  0  0  0  0  0  0  0  0  0
    8.8970   47.4330   52.7520 C   0  0  0  0  0  0  0  0  0  0  0  0
    9.1310   48.3860   53.6890 F   0  0  0  0  0  0  0  0  0  0  0  0
    7.5940   47.1930   52.3060 C   0  0  0  0  0  0  0  0  0  0  0  0
    6.5610   47.9100   52.8100 F   0  0  0  0  0  0  0  0  0  0  0  0
    7.3560   46.2120   51.3390 C   0  0  0  0  0  0  0  0  0  0  0  0
    6.0750   44.0940   50.2960 H   0  0  0  0  0  0  0  0  0  0  0  0
    5.9492   43.0528   47.9464 H   0  0  0  0  0  0  0  0  0  0  0  0
    7.5563   42.3344   48.3362 H   0  0  0  0  0  0  0  0  0  0  0  0
    5.4968   40.8310   48.7187 H   0  0  0  0  0  0  0  0  0  0  0  0
    6.6515   41.0003   50.0941 H   0  0  0  0  0  0  0  0  0  0  0  0
    3.1052   40.8641   49.4932 H   0  0  0  0  0  0  0  0  0  0  0  0
    1.7101   44.1922   53.2888 H   0  0  0  0  0  0  0  0  0  0  0  0
    1.6444   45.7673   55.2209 H   0  0  0  0  0  0  0  0  0  0  0  0
    3.7696   46.6033   56.2286 H   0  0  0  0  0  0  0  0  0  0  0  0
    5.9659   45.8637   55.3021 H   0  0  0  0  0  0  0  0  0  0  0  0
    6.0441   44.2910   53.3688 H   0  0  0  0  0  0  0  0  0  0  0  0
   10.5692   45.1384   50.8487 H   0  0  0  0  0  0  0  0  0  0  0  0
   10.9864   46.8874   52.5767 H   0  0  0  0  0  0  0  0  0  0  0  0
    6.3296   46.0323   50.9865 H   0  0  0  0  0  0  0  0  0  0  0  0
  1  2  2  0
  2  3  1  0
  3  4  1  0
  4  5  1  0
  5  6  1  0
  6  7  2  0
  7  8  1  0
  8  9  1  0
  9 10  1  0
 10 11  2  0
 11 12  1  0
 12 13  2  0
 13 14  1  0
 14 15  2  0
  9 16  2  0
  2 17  1  0
 17 18  2  0
 18 19  1  0
 19 20  2  0
 20 21  1  0
 20 22  1  0
 22 23  1  0
 22 24  2  0
 16  6  1  0
 24 17  1  0
 15 10  1  0
  3 25  1  0
  4 26  1  0
  4 27  1  0
  5 28  1  0
  5 29  1  0
  7 30  1  0
 11 31  1  0
 12 32  1  0
 13 33  1  0
 14 34  1  0
 15 35  1  0
 18 36  1  0
 19 37  1  0
 24 38  1  0
M  END
>  <meeko>  (4) 
{"is_sidechain": [false], "free_energy": -8.67, "intermolecular_energy": -11.493, "internal_energy": -1.005}

$$$$
ligand_91_conformer_4_docked
     RDKit          3D

 38 40  0  0  0  0  0  0  0  0999 V2000
    8.5100   44.0250   49.0760 O   0  0  0  0  0  0  0  0  0  0  0  0
    7.5470   44.1420   49.8840 C   0  0  0  0  0  0  0  0  0  0  0  0
    7.5390   45.2300   50.8240 N   0  0  0  0  0  0  0  0  0  0  0  0
    8.5540   46.2830   50.8120 C   0  0  0  0  0  0  0  0  0  0  0  0
    8.1530   47.4210   51.7530 C   0  0  0  0  0  0  0  0  0  0  0  0
    7.0620   46.9770   52.6780 C   0  0  0  0  0  0  0  0  0  0  0  0
    7.2230   46.8960   54.0570 C   0  0  0  0  0  0  0  0  0  0  0  0
    5.7510   46.4200   54.7140 S   0  0  0  0  0  0  0  0  0  0  0  0
    4.9670   46.3470   53.2220 C   0  0  0  0  0  0  0  0  0  0  0  0
    3.5490   45.9790   53.0050 C   0  0  0  0  0  0  0  0  0  0  0  0
    3.0610   45.7910   51.6990 C   0  0  0  0  0  0  0  0  0  0  0  0
    1.7230   45.4430   51.4850 C   0  0  0  0  0  0  0  0  0  0  0  0
    0.8600   45.2800   52.5700 C   0  0  0  0  0  0  0  0  0  0  0  0
    1.3320   45.4630   53.8710 C   0  0  0  0  0  0  0  0  0  0  0  0
    2.6680   45.8110   54.0910 C   0  0  0  0  0  0  0  0  0  0  0  0
    5.8130   46.6830   52.2220 N   0  0  0  0  0  0  0  0  0  0  0  0
    6.4520   43.1430   49.8550 C   0  0  0  0  0  0  0  0  0  0  0  0
    6.4020   42.1420   48.8660 C   0  0  0  0  0  0  0  0  0  0  0  0
    5.3640   41.2060   48.8580 C   0  0  0  0  0  0  0  0  0  0  0  0
    4.3680   41.2530   49.8380 C   0  0  0  0  0  0  0  0  0  0  0  0
    3.3640   40.3410   49.8260 F   0  0  0  0  0  0  0  0  0  0  0  0
    4.4130   42.2340   50.8320 C   0  0  0  0  0  0  0  0  0  0  0  0
    3.4510   42.2790   51.7850 F   0  0  0  0  0  0  0  0  0  0  0  0
    5.4500   43.1720   50.8430 C   0  0  0  0  0  0  0  0  0  0  0  0
    6.8000   45.2800   51.5610 H   0  0  0  0  0  0  0  0  0  0  0  0
    9.5160   45.8629   51.1406 H   0  0  0  0  0  0  0  0  0  0  0  0
    8.6443   46.6800   49.7901 H   0  0  0  0  0  0  0  0  0  0  0  0
    9.0281   47.7261   52.3455 H   0  0  0  0  0  0  0  0  0  0  0  0
    7.7878   48.2672   51.1525 H   0  0  0  0  0  0  0  0  0  0  0  0
    8.1466   47.1055   54.6165 H   0  0  0  0  0  0  0  0  0  0  0  0
    3.7362   45.9185   50.8400 H   0  0  0  0  0  0  0  0  0  0  0  0
    1.3505   45.2976   50.4603 H   0  0  0  0  0  0  0  0  0  0  0  0
   -0.1920   45.0073   52.3999 H   0  0  0  0  0  0  0  0  0  0  0  0
    0.6511   45.3331   54.7251 H   0  0  0  0  0  0  0  0  0  0  0  0
    3.0334   45.9545   55.1186 H   0  0  0  0  0  0  0  0  0  0  0  0
    7.1849   42.0963   48.0947 H   0  0  0  0  0  0  0  0  0  0  0  0
    5.3307   40.4304   48.0787 H   0  0  0  0  0  0  0  0  0  0  0  0
    5.4829   43.9392   51.6306 H   0  0  0  0  0  0  0  0  0  0  0  0
  1  2  2  0
  2  3  1  0
  3  4  1  0
  4  5  1  0
  5  6  1  0
  6  7  2  0
  7  8  1  0
  8  9  1  0
  9 10  1  0
 10 11  2  0
 11 12  1  0
 12 13  2  0
 13 14  1  0
 14 15  2  0
  9 16  2  0
  2 17  1  0
 17 18  2  0
 18 19  1  0
 19 20  2  0
 20 21  1  0
 20 22  1  0
 22 23  1  0
 22 24  2  0
 16  6  1  0
 24 17  1  0
 15 10  1  0
  3 25  1  0
  4 26  1  0
  4 27  1  0
  5 28  1  0
  5 29  1  0
  7 30  1  0
 11 31  1  0
 12 32  1  0
 13 33  1  0
 14 34  1  0
 15 35  1  0
 18 36  1  0
 19 37  1  0
 24 38  1  0
M  END
>  <meeko>  (5) 
{"is_sidechain": [false], "free_energy": -8.089, "intermolecular_energy": -10.513, "internal_energy": -1.233}

$$$$
