ligand_2_conformer_1_docked
     RDKit          3D

 59 62  0  0  0  0  0  0  0  0999 V2000
   -1.6470   44.5000   57.1270 C   0  0  0  0  0  0  0  0  0  0  0  0
   -0.2750   44.9360   56.7120 C   0  0  0  0  0  0  0  0  0  0  0  0
    0.5240   44.2760   55.8000 C   0  0  0  0  0  0  0  0  0  0  0  0
    1.6530   45.0660   55.7200 C   0  0  0  0  0  0  0  0  0  0  0  0
    2.7690   44.8130   54.8570 N   0  0  0  0  0  0  0  0  0  0  0  0
    2.6350   44.3430   53.5070 C   0  0  0  0  0  0  0  0  0  0  0  0
    1.4980   44.2890   52.9600 O   0  0  0  0  0  0  0  0  0  0  0  0
    3.8060   43.9600   52.7710 N   0  0  0  0  0  0  0  0  0  0  0  0
    3.7520   43.5870   51.3500 C   0  0  0  0  0  0  0  0  0  0  0  0
    4.9910   42.7620   50.9500 C   0  0  0  0  0  0  0  0  0  0  0  0
    6.1550   43.6290   50.4350 C   0  0  0  0  0  0  0  0  0  0  0  0
    6.1080   44.9820   51.0350 N   0  0  0  0  0  0  0  0  0  0  0  0
    7.3540   45.7630   50.7740 C   0  0  2  0  0  0  0  0  0  0  0  0
    8.4310   44.9250   50.0540 C   0  0  0  0  0  0  0  0  0  0  0  0
    7.9580   46.2730   52.0740 C   0  0  0  0  0  0  0  0  0  0  0  0
    7.1540   46.4380   53.2140 C   0  0  0  0  0  0  0  0  0  0  0  0
    7.7090   46.9250   54.4030 C   0  0  0  0  0  0  0  0  0  0  0  0
    9.0680   47.2540   54.4620 C   0  0  0  0  0  0  0  0  0  0  0  0
    9.8750   47.0930   53.3340 C   0  0  0  0  0  0  0  0  0  0  0  0
    9.3240   46.6070   52.1440 C   0  0  0  0  0  0  0  0  0  0  0  0
    4.9130   45.7110   50.5250 C   0  0  0  0  0  0  0  0  0  0  0  0
    3.6400   44.8360   50.4660 C   0  0  0  0  0  0  0  0  0  0  0  0
    1.5430   46.1360   56.5300 N   0  0  0  0  0  0  0  0  0  0  0  0
    0.3740   46.0460   57.1430 N   0  0  0  0  0  0  0  0  0  0  0  0
   -0.0960   47.0240   58.0840 C   0  0  0  0  0  0  0  0  0  0  0  0
   -1.3060   47.7080   57.8630 C   0  0  0  0  0  0  0  0  0  0  0  0
   -1.7610   48.6500   58.7900 C   0  0  0  0  0  0  0  0  0  0  0  0
   -1.0170   48.9160   59.9450 C   0  0  0  0  0  0  0  0  0  0  0  0
   -1.4590   49.8340   60.8390 F   0  0  0  0  0  0  0  0  0  0  0  0
    0.1770   48.2290   60.1810 C   0  0  0  0  0  0  0  0  0  0  0  0
    0.6350   47.2800   59.2600 C   0  0  0  0  0  0  0  0  0  0  0  0
    1.8010   46.6310   59.5000 F   0  0  0  0  0  0  0  0  0  0  0  0
   -1.7090   44.4803   58.2251 H   0  0  0  0  0  0  0  0  0  0  0  0
   -2.3917   45.2058   56.7303 H   0  0  0  0  0  0  0  0  0  0  0  0
   -1.8476   43.4938   56.7303 H   0  0  0  0  0  0  0  0  0  0  0  0
    0.3109   43.3400   55.2630 H   0  0  0  0  0  0  0  0  0  0  0  0
    3.7300   44.9920   55.2270 H   0  0  0  0  0  0  0  0  0  0  0  0
    4.7310   44.0560   53.2470 H   0  0  0  0  0  0  0  0  0  0  0  0
    2.8570   42.9660   51.1974 H   0  0  0  0  0  0  0  0  0  0  0  0
    5.3362   42.2000   51.8303 H   0  0  0  0  0  0  0  0  0  0  0  0
    4.6897   42.0963   50.1277 H   0  0  0  0  0  0  0  0  0  0  0  0
    7.1080   43.1489   50.7021 H   0  0  0  0  0  0  0  0  0  0  0  0
    6.0674   43.7243   49.3426 H   0  0  0  0  0  0  0  0  0  0  0  0
    7.0547   46.6018   50.1284 H   0  0  0  0  0  0  0  0  0  0  0  0
    9.0689   44.4287   50.8001 H   0  0  0  0  0  0  0  0  0  0  0  0
    7.9444   44.1656   49.4243 H   0  0  0  0  0  0  0  0  0  0  0  0
    9.0475   45.5833   49.4243 H   0  0  0  0  0  0  0  0  0  0  0  0
    6.0846   46.1836   53.1721 H   0  0  0  0  0  0  0  0  0  0  0  0
    7.0753   47.0495   55.2935 H   0  0  0  0  0  0  0  0  0  0  0  0
    9.5004   47.6395   55.3971 H   0  0  0  0  0  0  0  0  0  0  0  0
   10.9439   47.3484   53.3813 H   0  0  0  0  0  0  0  0  0  0  0  0
    9.9623   46.4848   51.2565 H   0  0  0  0  0  0  0  0  0  0  0  0
    4.7175   46.5670   51.1876 H   0  0  0  0  0  0  0  0  0  0  0  0
    5.1391   46.0258   49.4955 H   0  0  0  0  0  0  0  0  0  0  0  0
    2.7826   45.4350   50.8066 H   0  0  0  0  0  0  0  0  0  0  0  0
    3.5083   44.5023   49.4262 H   0  0  0  0  0  0  0  0  0  0  0  0
   -1.8956   47.5006   56.9578 H   0  0  0  0  0  0  0  0  0  0  0  0
   -2.7062   49.1835   58.6112 H   0  0  0  0  0  0  0  0  0  0  0  0
    0.7578   48.4346   61.0923 H   0  0  0  0  0  0  0  0  0  0  0  0
  1  2  1  0
  2  3  2  0
  3  4  1  0
  4  5  1  0
  5  6  1  0
  6  7  2  0
  6  8  1  0
  8  9  1  0
  9 10  1  0
 10 11  1  0
 11 12  1  0
 12 13  1  0
 13 14  1  0
 13 15  1  0
 15 16  2  0
 16 17  1  0
 17 18  2  0
 18 19  1  0
 19 20  2  0
 12 21  1  0
 21 22  1  0
  4 23  2  0
 23 24  1  0
 24 25  1  0
 25 26  2  0
 26 27  1  0
 27 28  2  0
 28 29  1  0
 28 30  1  0
 30 31  2  0
 31 32  1  0
 24  2  1  0
 31 25  1  0
 22  9  1  0
 20 15  1  0
  1 33  1  0
  1 34  1  0
  1 35  1  0
  3 36  1  0
  5 37  1  0
  8 38  1  0
  9 39  1  0
 10 40  1  0
 10 41  1  0
 11 42  1  0
 11 43  1  0
 13 44  1  6
 14 45  1  0
 14 46  1  0
 14 47  1  0
 16 48  1  0
 17 49  1  0
 18 50  1  0
 19 51  1  0
 20 52  1  0
 21 53  1  0
 21 54  1  0
 22 55  1  0
 22 56  1  0
 26 57  1  0
 27 58  1  0
 30 59  1  0
M  END
>  <meeko>  (1) 
{"is_sidechain": [false], "free_energy": -9.634, "intermolecular_energy": -12.45, "internal_energy": -0.618}

$$$$
ligand_2_conformer_1_docked
     RDKit          3D

 59 62  0  0  0  0  0  0  0  0999 V2000
    5.7410   41.4090   46.8550 C   0  0  0  0  0  0  0  0  0  0  0  0
    4.8290   41.1740   48.0200 C   0  0  0  0  0  0  0  0  0  0  0  0
    4.9900   41.7230   49.2760 C   0  0  0  0  0  0  0  0  0  0  0  0
    3.8990   41.2550   49.9810 C   0  0  0  0  0  0  0  0  0  0  0  0
    3.5980   41.5920   51.3410 N   0  0  0  0  0  0  0  0  0  0  0  0
    2.7140   42.6600   51.7150 C   0  0  0  0  0  0  0  0  0  0  0  0
    2.0210   43.2500   50.8400 O   0  0  0  0  0  0  0  0  0  0  0  0
    2.5980   43.0330   53.0960 N   0  0  0  0  0  0  0  0  0  0  0  0
    1.6240   44.0310   53.5590 C   0  0  0  0  0  0  0  0  0  0  0  0
    1.5350   45.2130   52.5730 C   0  0  0  0  0  0  0  0  0  0  0  0
    2.5110   46.3560   52.9090 C   0  0  0  0  0  0  0  0  0  0  0  0
    3.7040   45.8370   53.6150 N   0  0  0  0  0  0  0  0  0  0  0  0
    4.7890   46.8580   53.7230 C   0  0  2  0  0  0  0  0  0  0  0  0
    4.2710   48.2910   53.4770 C   0  0  0  0  0  0  0  0  0  0  0  0
    5.8930   46.5870   52.7120 C   0  0  0  0  0  0  0  0  0  0  0  0
    5.7500   45.5630   51.7600 C   0  0  0  0  0  0  0  0  0  0  0  0
    6.7750   45.3040   50.8440 C   0  0  0  0  0  0  0  0  0  0  0  0
    7.9520   46.0610   50.8730 C   0  0  0  0  0  0  0  0  0  0  0  0
    8.1040   47.0800   51.8160 C   0  0  0  0  0  0  0  0  0  0  0  0
    7.0820   47.3430   52.7330 C   0  0  0  0  0  0  0  0  0  0  0  0
    3.3090   45.3440   54.9640 C   0  0  0  0  0  0  0  0  0  0  0  0
    1.9900   44.5380   54.9600 C   0  0  0  0  0  0  0  0  0  0  0  0
    3.1270   40.4740   49.2010 N   0  0  0  0  0  0  0  0  0  0  0  0
    3.7050   40.4160   48.0110 N   0  0  0  0  0  0  0  0  0  0  0  0
    3.1570   39.6740   46.9100 C   0  0  0  0  0  0  0  0  0  0  0  0
    3.1090   38.2680   46.9460 C   0  0  0  0  0  0  0  0  0  0  0  0
    2.5630   37.5550   45.8740 C   0  0  0  0  0  0  0  0  0  0  0  0
    2.0580   38.2360   44.7620 C   0  0  0  0  0  0  0  0  0  0  0  0
    1.5340   37.5410   43.7220 F   0  0  0  0  0  0  0  0  0  0  0  0
    2.0860   39.6330   44.7250 C   0  0  0  0  0  0  0  0  0  0  0  0
    2.6250   40.3530   45.7970 C   0  0  0  0  0  0  0  0  0  0  0  0
    2.6540   41.7070   45.7400 F   0  0  0  0  0  0  0  0  0  0  0  0
    6.7452   41.6678   47.2218 H   0  0  0  0  0  0  0  0  0  0  0  0
    5.7978   40.4962   46.2439 H   0  0  0  0  0  0  0  0  0  0  0  0
    5.3496   42.2356   46.2439 H   0  0  0  0  0  0  0  0  0  0  0  0
    5.7979   42.3793   49.6318 H   0  0  0  0  0  0  0  0  0  0  0  0
    4.0380   41.0240   52.1000 H   0  0  0  0  0  0  0  0  0  0  0  0
    3.1600   42.4930   53.7930 H   0  0  0  0  0  0  0  0  0  0  0  0
    0.6392   43.5432   53.6073 H   0  0  0  0  0  0  0  0  0  0  0  0
    1.7634   44.8436   51.5624 H   0  0  0  0  0  0  0  0  0  0  0  0
    0.5160   45.6214   52.6422 H   0  0  0  0  0  0  0  0  0  0  0  0
    2.8282   46.8454   51.9763 H   0  0  0  0  0  0  0  0  0  0  0  0
    1.9989   47.0763   53.5639 H   0  0  0  0  0  0  0  0  0  0  0  0
    5.1745   46.7815   54.7504 H   0  0  0  0  0  0  0  0  0  0  0  0
    4.0918   48.7869   54.4424 H   0  0  0  0  0  0  0  0  0  0  0  0
    5.0207   48.8590   52.9066 H   0  0  0  0  0  0  0  0  0  0  0  0
    3.3314   48.2484   52.9066 H   0  0  0  0  0  0  0  0  0  0  0  0
    4.8285   44.9629   51.7351 H   0  0  0  0  0  0  0  0  0  0  0  0
    6.6558   44.5035   50.0991 H   0  0  0  0  0  0  0  0  0  0  0  0
    8.7573   45.8533   50.1530 H   0  0  0  0  0  0  0  0  0  0  0  0
    9.0283   47.6759   51.8372 H   0  0  0  0  0  0  0  0  0  0  0  0
    7.2068   48.1450   53.4755 H   0  0  0  0  0  0  0  0  0  0  0  0
    4.1118   44.6974   55.3480 H   0  0  0  0  0  0  0  0  0  0  0  0
    3.1481   46.2277   55.5989 H   0  0  0  0  0  0  0  0  0  0  0  0
    2.1010   43.6738   55.6315 H   0  0  0  0  0  0  0  0  0  0  0  0
    1.1848   45.2070   55.2977 H   0  0  0  0  0  0  0  0  0  0  0  0
    3.5022   37.7282   47.8201 H   0  0  0  0  0  0  0  0  0  0  0  0
    2.5307   36.4559   45.9056 H   0  0  0  0  0  0  0  0  0  0  0  0
    1.6837   40.1673   43.8517 H   0  0  0  0  0  0  0  0  0  0  0  0
  1  2  1  0
  2  3  2  0
  3  4  1  0
  4  5  1  0
  5  6  1  0
  6  7  2  0
  6  8  1  0
  8  9  1  0
  9 10  1  0
 10 11  1  0
 11 12  1  0
 12 13  1  0
 13 14  1  0
 13 15  1  0
 15 16  2  0
 16 17  1  0
 17 18  2  0
 18 19  1  0
 19 20  2  0
 12 21  1  0
 21 22  1  0
  4 23  2  0
 23 24  1  0
 24 25  1  0
 25 26  2  0
 26 27  1  0
 27 28  2  0
 28 29  1  0
 28 30  1  0
 30 31  2  0
 31 32  1  0
 24  2  1  0
 31 25  1  0
 22  9  1  0
 20 15  1  0
  1 33  1  0
  1 34  1  0
  1 35  1  0
  3 36  1  0
  5 37  1  0
  8 38  1  0
  9 39  1  0
 10 40  1  0
 10 41  1  0
 11 42  1  0
 11 43  1  0
 13 44  1  1
 14 45  1  0
 14 46  1  0
 14 47  1  0
 16 48  1  0
 17 49  1  0
 18 50  1  0
 19 51  1  0
 20 52  1  0
 21 53  1  0
 21 54  1  0
 22 55  1  0
 22 56  1  0
 26 57  1  0
 27 58  1  0
 30 59  1  0
M  END
>  <meeko>  (2) 
{"is_sidechain": [false], "free_energy": -9.521, "intermolecular_energy": -12.174, "internal_energy": -0.748}

$$$$
ligand_2_conformer_1_docked
     RDKit          3D

 59 62  0  0  0  0  0  0  0  0999 V2000
    6.2000   41.8570   50.1520 C   0  0  0  0  0  0  0  0  0  0  0  0
    4.9840   42.4210   50.8200 C   0  0  0  0  0  0  0  0  0  0  0  0
    3.7610   41.7870   50.9070 C   0  0  0  0  0  0  0  0  0  0  0  0
    2.9850   42.6670   51.6340 C   0  0  0  0  0  0  0  0  0  0  0  0
    1.6280   42.4290   52.0270 N   0  0  0  0  0  0  0  0  0  0  0  0
    0.5100   43.1520   51.4890 C   0  0  0  0  0  0  0  0  0  0  0  0
    0.6660   43.9290   50.5060 O   0  0  0  0  0  0  0  0  0  0  0  0
   -0.7950   42.9630   52.0560 N   0  0  0  0  0  0  0  0  0  0  0  0
   -1.9980   43.5770   51.4760 C   0  0  0  0  0  0  0  0  0  0  0  0
   -1.9330   45.1150   51.5730 C   0  0  0  0  0  0  0  0  0  0  0  0
   -2.5630   45.6660   52.8670 C   0  0  0  0  0  0  0  0  0  0  0  0
   -2.4700   44.6720   53.9610 N   0  0  0  0  0  0  0  0  0  0  0  0
   -2.8240   45.2560   55.2890 C   0  0  2  0  0  0  0  0  0  0  0  0
   -3.6480   46.5540   55.1590 C   0  0  0  0  0  0  0  0  0  0  0  0
   -1.5710   45.5850   56.0890 C   0  0  0  0  0  0  0  0  0  0  0  0
   -1.6150   46.5410   57.1180 C   0  0  0  0  0  0  0  0  0  0  0  0
   -0.4570   46.8540   57.8380 C   0  0  0  0  0  0  0  0  0  0  0  0
    0.7530   46.2200   57.5360 C   0  0  0  0  0  0  0  0  0  0  0  0
    0.8070   45.2680   56.5150 C   0  0  0  0  0  0  0  0  0  0  0  0
   -0.3480   44.9520   55.7920 C   0  0  0  0  0  0  0  0  0  0  0  0
   -3.3450   43.5070   53.6490 C   0  0  0  0  0  0  0  0  0  0  0  0
   -3.2620   43.0560   52.1730 C   0  0  0  0  0  0  0  0  0  0  0  0
    3.6950   43.7620   51.9680 N   0  0  0  0  0  0  0  0  0  0  0  0
    4.9070   43.6150   51.4580 N   0  0  0  0  0  0  0  0  0  0  0  0
    5.9490   44.5900   51.6210 C   0  0  0  0  0  0  0  0  0  0  0  0
    6.6540   45.0780   50.5050 C   0  0  0  0  0  0  0  0  0  0  0  0
    7.6590   46.0360   50.6710 C   0  0  0  0  0  0  0  0  0  0  0  0
    7.9670   46.5170   51.9480 C   0  0  0  0  0  0  0  0  0  0  0  0
    8.9460   47.4420   52.1050 F   0  0  0  0  0  0  0  0  0  0  0  0
    7.2600   46.0500   53.0600 C   0  0  0  0  0  0  0  0  0  0  0  0
    6.2490   45.0970   52.9000 C   0  0  0  0  0  0  0  0  0  0  0  0
    5.5820   44.6470   53.9910 F   0  0  0  0  0  0  0  0  0  0  0  0
    6.9173   41.5243   50.9167 H   0  0  0  0  0  0  0  0  0  0  0  0
    5.9100   41.0015   49.5243 H   0  0  0  0  0  0  0  0  0  0  0  0
    6.6658   42.6310   49.5243 H   0  0  0  0  0  0  0  0  0  0  0  0
    3.4724   40.8093   50.4937 H   0  0  0  0  0  0  0  0  0  0  0  0
    1.4420   41.6820   52.7340 H   0  0  0  0  0  0  0  0  0  0  0  0
   -0.8870   42.2820   52.8440 H   0  0  0  0  0  0  0  0  0  0  0  0
   -2.0410   43.2973   50.4130 H   0  0  0  0  0  0  0  0  0  0  0  0
   -0.8778   45.4237   51.5383 H   0  0  0  0  0  0  0  0  0  0  0  0
   -2.5090   45.5217   50.7287 H   0  0  0  0  0  0  0  0  0  0  0  0
   -2.0316   46.5817   53.1654 H   0  0  0  0  0  0  0  0  0  0  0  0
   -3.6244   45.8841   52.6777 H   0  0  0  0  0  0  0  0  0  0  0  0
   -3.4267   44.4925   55.8026 H   0  0  0  0  0  0  0  0  0  0  0  0
   -3.8906   46.9362   56.1615 H   0  0  0  0  0  0  0  0  0  0  0  0
   -3.0621   47.3069   54.6114 H   0  0  0  0  0  0  0  0  0  0  0  0
   -4.5787   46.3442   54.6114 H   0  0  0  0  0  0  0  0  0  0  0  0
   -2.5629   47.0448   57.3581 H   0  0  0  0  0  0  0  0  0  0  0  0
   -0.4980   47.6011   58.6443 H   0  0  0  0  0  0  0  0  0  0  0  0
    1.6619   46.4711   58.1025 H   0  0  0  0  0  0  0  0  0  0  0  0
    1.7576   44.7670   56.2797 H   0  0  0  0  0  0  0  0  0  0  0  0
   -0.3010   44.2045   54.9864 H   0  0  0  0  0  0  0  0  0  0  0  0
   -3.0448   42.6640   54.2887 H   0  0  0  0  0  0  0  0  0  0  0  0
   -4.3827   43.8207   53.8352 H   0  0  0  0  0  0  0  0  0  0  0  0
   -3.2575   41.9565   52.1386 H   0  0  0  0  0  0  0  0  0  0  0  0
   -4.1332   43.4704   51.6446 H   0  0  0  0  0  0  0  0  0  0  0  0
    6.4136   44.7045   49.4987 H   0  0  0  0  0  0  0  0  0  0  0  0
    8.2086   46.4122   49.7955 H   0  0  0  0  0  0  0  0  0  0  0  0
    7.4994   46.4330   54.0630 H   0  0  0  0  0  0  0  0  0  0  0  0
  1  2  1  0
  2  3  2  0
  3  4  1  0
  4  5  1  0
  5  6  1  0
  6  7  2  0
  6  8  1  0
  8  9  1  0
  9 10  1  0
 10 11  1  0
 11 12  1  0
 12 13  1  0
 13 14  1  0
 13 15  1  0
 15 16  2  0
 16 17  1  0
 17 18  2  0
 18 19  1  0
 19 20  2  0
 12 21  1  0
 21 22  1  0
  4 23  2  0
 23 24  1  0
 24 25  1  0
 25 26  2  0
 26 27  1  0
 27 28  2  0
 28 29  1  0
 28 30  1  0
 30 31  2  0
 31 32  1  0
 24  2  1  0
 31 25  1  0
 22  9  1  0
 20 15  1  0
  1 33  1  0
  1 34  1  0
  1 35  1  0
  3 36  1  0
  5 37  1  0
  8 38  1  0
  9 39  1  0
 10 40  1  0
 10 41  1  0
 11 42  1  0
 11 43  1  0
 13 44  1  1
 14 45  1  0
 14 46  1  0
 14 47  1  0
 16 48  1  0
 17 49  1  0
 18 50  1  0
 19 51  1  0
 20 52  1  0
 21 53  1  0
 21 54  1  0
 22 55  1  0
 22 56  1  0
 26 57  1  0
 27 58  1  0
 30 59  1  0
M  END
>  <meeko>  (3) 
{"is_sidechain": [false], "free_energy": -8.672, "intermolecular_energy": -11.023, "internal_energy": -0.803}

$$$$
ligand_2_conformer_1_docked
     RDKit          3D

 59 62  0  0  0  0  0  0  0  0999 V2000
    5.9790   44.2110   50.2870 C   0  0  0  0  0  0  0  0  0  0  0  0
    5.0680   45.0370   51.1440 C   0  0  0  0  0  0  0  0  0  0  0  0
    3.6890   44.9790   51.1210 C   0  0  0  0  0  0  0  0  0  0  0  0
    3.3060   45.8770   52.0970 C   0  0  0  0  0  0  0  0  0  0  0  0
    1.9500   46.1380   52.4810 N   0  0  0  0  0  0  0  0  0  0  0  0
    0.8540   45.2700   52.1560 C   0  0  0  0  0  0  0  0  0  0  0  0
    1.0690   44.1330   51.6520 O   0  0  0  0  0  0  0  0  0  0  0  0
   -0.4890   45.6900   52.4370 N   0  0  0  0  0  0  0  0  0  0  0  0
   -1.6450   44.8030   52.2430 C   0  0  0  0  0  0  0  0  0  0  0  0
   -2.9630   45.5390   52.5580 C   0  0  0  0  0  0  0  0  0  0  0  0
   -3.3990   45.3950   54.0290 C   0  0  0  0  0  0  0  0  0  0  0  0
   -2.2230   45.2000   54.9080 N   0  0  0  0  0  0  0  0  0  0  0  0
   -2.5710   45.3220   56.3560 C   0  0  2  0  0  0  0  0  0  0  0  0
   -3.8390   46.1700   56.5840 C   0  0  0  0  0  0  0  0  0  0  0  0
   -1.4350   45.9710   57.1340 C   0  0  0  0  0  0  0  0  0  0  0  0
   -1.6880   47.0640   57.9800 C   0  0  0  0  0  0  0  0  0  0  0  0
   -0.6390   47.6710   58.6800 C   0  0  0  0  0  0  0  0  0  0  0  0
    0.6690   47.1940   58.5380 C   0  0  0  0  0  0  0  0  0  0  0  0
    0.9300   46.1090   57.6990 C   0  0  0  0  0  0  0  0  0  0  0  0
   -0.1150   45.5000   56.9980 C   0  0  0  0  0  0  0  0  0  0  0  0
   -1.6060   43.8740   54.6260 C   0  0  0  0  0  0  0  0  0  0  0  0
   -1.5170   43.5480   53.1170 C   0  0  0  0  0  0  0  0  0  0  0  0
    4.3850   46.4400   52.6750 N   0  0  0  0  0  0  0  0  0  0  0  0
    5.4550   45.9370   52.0820 N   0  0  0  0  0  0  0  0  0  0  0  0
    6.7960   46.3010   52.4460 C   0  0  0  0  0  0  0  0  0  0  0  0
    7.5990   47.0470   51.5640 C   0  0  0  0  0  0  0  0  0  0  0  0
    8.9000   47.4070   51.9300 C   0  0  0  0  0  0  0  0  0  0  0  0
    9.4080   47.0310   53.1780 C   0  0  0  0  0  0  0  0  0  0  0  0
   10.6710   47.3780   53.5280 F   0  0  0  0  0  0  0  0  0  0  0  0
    8.6110   46.3040   54.0680 C   0  0  0  0  0  0  0  0  0  0  0  0
    7.3060   45.9460   53.7090 C   0  0  0  0  0  0  0  0  0  0  0  0
    6.5520   45.2320   54.5790 F   0  0  0  0  0  0  0  0  0  0  0  0
    6.6411   43.6106   50.9282 H   0  0  0  0  0  0  0  0  0  0  0  0
    5.3789   43.5427   49.6519 H   0  0  0  0  0  0  0  0  0  0  0  0
    6.5855   44.8735   49.6519 H   0  0  0  0  0  0  0  0  0  0  0  0
    3.0461   44.3619   50.4762 H   0  0  0  0  0  0  0  0  0  0  0  0
    1.7520   47.0020   53.0360 H   0  0  0  0  0  0  0  0  0  0  0  0
   -0.6210   46.6230   52.8910 H   0  0  0  0  0  0  0  0  0  0  0  0
   -1.6627   44.4964   51.1868 H   0  0  0  0  0  0  0  0  0  0  0  0
   -2.8289   46.6079   52.3356 H   0  0  0  0  0  0  0  0  0  0  0  0
   -3.7490   45.0846   51.9369 H   0  0  0  0  0  0  0  0  0  0  0  0
   -3.9334   46.3055   54.3378 H   0  0  0  0  0  0  0  0  0  0  0  0
   -4.0561   44.5174   54.1183 H   0  0  0  0  0  0  0  0  0  0  0  0
   -2.7511   44.2967   56.7115 H   0  0  0  0  0  0  0  0  0  0  0  0
   -4.0130   46.2864   57.6639 H   0  0  0  0  0  0  0  0  0  0  0  0
   -3.7049   47.1608   56.1254 H   0  0  0  0  0  0  0  0  0  0  0  0
   -4.7034   45.6676   56.1254 H   0  0  0  0  0  0  0  0  0  0  0  0
   -2.7142   47.4439   58.0925 H   0  0  0  0  0  0  0  0  0  0  0  0
   -0.8430   48.5247   59.3431 H   0  0  0  0  0  0  0  0  0  0  0  0
    1.4919   47.6742   59.0877 H   0  0  0  0  0  0  0  0  0  0  0  0
    1.9580   45.7333   57.5895 H   0  0  0  0  0  0  0  0  0  0  0  0
    0.0953   44.6472   56.3358 H   0  0  0  0  0  0  0  0  0  0  0  0
   -0.5891   43.8661   55.0453 H   0  0  0  0  0  0  0  0  0  0  0  0
   -2.2507   43.1107   55.0862 H   0  0  0  0  0  0  0  0  0  0  0  0
   -0.5459   43.0729   52.9141 H   0  0  0  0  0  0  0  0  0  0  0  0
   -2.3518   42.8766   52.8673 H   0  0  0  0  0  0  0  0  0  0  0  0
    7.2023   47.3482   50.5832 H   0  0  0  0  0  0  0  0  0  0  0  0
    9.5251   47.9870   51.2351 H   0  0  0  0  0  0  0  0  0  0  0  0
    9.0098   46.0132   55.0510 H   0  0  0  0  0  0  0  0  0  0  0  0
  1  2  1  0
  2  3  2  0
  3  4  1  0
  4  5  1  0
  5  6  1  0
  6  7  2  0
  6  8  1  0
  8  9  1  0
  9 10  1  0
 10 11  1  0
 11 12  1  0
 12 13  1  0
 13 14  1  0
 13 15  1  0
 15 16  2  0
 16 17  1  0
 17 18  2  0
 18 19  1  0
 19 20  2  0
 12 21  1  0
 21 22  1  0
  4 23  2  0
 23 24  1  0
 24 25  1  0
 25 26  2  0
 26 27  1  0
 27 28  2  0
 28 29  1  0
 28 30  1  0
 30 31  2  0
 31 32  1  0
 24  2  1  0
 31 25  1  0
 22  9  1  0
 20 15  1  0
  1 33  1  0
  1 34  1  0
  1 35  1  0
  3 36  1  0
  5 37  1  0
  8 38  1  0
  9 39  1  0
 10 40  1  0
 10 41  1  0
 11 42  1  0
 11 43  1  0
 13 44  1  1
 14 45  1  0
 14 46  1  0
 14 47  1  0
 16 48  1  0
 17 49  1  0
 18 50  1  0
 19 51  1  0
 20 52  1  0
 21 53  1  0
 21 54  1  0
 22 55  1  0
 22 56  1  0
 26 57  1  0
 27 58  1  0
 30 59  1  0
M  END
>  <meeko>  (4) 
{"is_sidechain": [false], "free_energy": -8.616, "intermolecular_energy": -11.59, "internal_energy": -0.164}

$$$$
ligand_2_conformer_1_docked
     RDKit          3D

 59 62  0  0  0  0  0  0  0  0999 V2000
    6.4090   45.0540   54.5120 C   0  0  0  0  0  0  0  0  0  0  0  0
    5.0570   45.1790   53.8780 C   0  0  0  0  0  0  0  0  0  0  0  0
    3.8970   45.5150   54.5460 C   0  0  0  0  0  0  0  0  0  0  0  0
    2.9410   45.5430   53.5510 C   0  0  0  0  0  0  0  0  0  0  0  0
    1.5650   45.8900   53.7480 N   0  0  0  0  0  0  0  0  0  0  0  0
    0.5050   44.9240   53.8070 C   0  0  0  0  0  0  0  0  0  0  0  0
    0.7680   43.6900   53.8550 O   0  0  0  0  0  0  0  0  0  0  0  0
   -0.8590   45.3700   53.8420 N   0  0  0  0  0  0  0  0  0  0  0  0
   -1.9830   44.4410   54.0260 C   0  0  0  0  0  0  0  0  0  0  0  0
   -3.3320   45.1800   53.9110 C   0  0  0  0  0  0  0  0  0  0  0  0
   -3.8520   45.7050   55.2630 C   0  0  0  0  0  0  0  0  0  0  0  0
   -2.7280   45.9850   56.1840 N   0  0  0  0  0  0  0  0  0  0  0  0
   -3.1630   46.7390   57.3980 C   0  0  2  0  0  0  0  0  0  0  0  0
   -3.9420   48.0230   57.0420 C   0  0  0  0  0  0  0  0  0  0  0  0
   -1.9650   47.1460   58.2430 C   0  0  0  0  0  0  0  0  0  0  0  0
   -2.1520   47.8110   59.4680 C   0  0  0  0  0  0  0  0  0  0  0  0
   -1.0480   48.2000   60.2340 C   0  0  0  0  0  0  0  0  0  0  0  0
    0.2500   47.9350   59.7830 C   0  0  0  0  0  0  0  0  0  0  0  0
    0.4460   47.2760   58.5680 C   0  0  0  0  0  0  0  0  0  0  0  0
   -0.6550   46.8840   57.7990 C   0  0  0  0  0  0  0  0  0  0  0  0
   -2.0680   44.7060   56.5690 C   0  0  0  0  0  0  0  0  0  0  0  0
   -1.8830   43.7310   55.3830 C   0  0  0  0  0  0  0  0  0  0  0  0
    3.4890   45.2440   52.3570 N   0  0  0  0  0  0  0  0  0  0  0  0
    4.7750   45.0100   52.5630 N   0  0  0  0  0  0  0  0  0  0  0  0
    5.6870   44.6670   51.5080 C   0  0  0  0  0  0  0  0  0  0  0  0
    5.5820   43.4310   50.8430 C   0  0  0  0  0  0  0  0  0  0  0  0
    6.4670   43.1100   49.8100 C   0  0  0  0  0  0  0  0  0  0  0  0
    7.4610   44.0180   49.4290 C   0  0  0  0  0  0  0  0  0  0  0  0
    8.3210   43.7020   48.4300 F   0  0  0  0  0  0  0  0  0  0  0  0
    7.5630   45.2550   50.0730 C   0  0  0  0  0  0  0  0  0  0  0  0
    6.6750   45.5850   51.1030 C   0  0  0  0  0  0  0  0  0  0  0  0
    6.7950   46.7840   51.7240 F   0  0  0  0  0  0  0  0  0  0  0  0
    6.3029   45.0638   55.6068 H   0  0  0  0  0  0  0  0  0  0  0  0
    6.8756   44.1089   54.1973 H   0  0  0  0  0  0  0  0  0  0  0  0
    7.0410   45.8975   54.1973 H   0  0  0  0  0  0  0  0  0  0  0  0
    3.7653   45.7139   55.6198 H   0  0  0  0  0  0  0  0  0  0  0  0
    1.3230   46.9010   53.8650 H   0  0  0  0  0  0  0  0  0  0  0  0
   -1.0320   46.4010   53.8400 H   0  0  0  0  0  0  0  0  0  0  0  0
   -1.9309   43.6852   53.2284 H   0  0  0  0  0  0  0  0  0  0  0  0
   -3.2061   46.0339   53.2291 H   0  0  0  0  0  0  0  0  0  0  0  0
   -4.0705   44.4569   53.5345 H   0  0  0  0  0  0  0  0  0  0  0  0
   -4.4208   46.6315   55.0957 H   0  0  0  0  0  0  0  0  0  0  0  0
   -4.4966   44.9372   55.7157 H   0  0  0  0  0  0  0  0  0  0  0  0
   -3.8208   46.0574   57.9573 H   0  0  0  0  0  0  0  0  0  0  0  0
   -4.2511   48.5325   57.9666 H   0  0  0  0  0  0  0  0  0  0  0  0
   -3.2971   48.6916   56.4529 H   0  0  0  0  0  0  0  0  0  0  0  0
   -4.8329   47.7599   56.4529 H   0  0  0  0  0  0  0  0  0  0  0  0
   -3.1700   48.0260   59.8251 H   0  0  0  0  0  0  0  0  0  0  0  0
   -1.2006   48.7157   61.1936 H   0  0  0  0  0  0  0  0  0  0  0  0
    1.1159   48.2460   60.3859 H   0  0  0  0  0  0  0  0  0  0  0  0
    1.4663   47.0649   58.2152 H   0  0  0  0  0  0  0  0  0  0  0  0
   -0.4960   46.3675   56.8409 H   0  0  0  0  0  0  0  0  0  0  0  0
   -1.0778   44.9368   56.9888 H   0  0  0  0  0  0  0  0  0  0  0  0
   -2.7229   44.2090   57.2998 H   0  0  0  0  0  0  0  0  0  0  0  0
   -0.8925   43.2594   55.4636 H   0  0  0  0  0  0  0  0  0  0  0  0
   -2.6884   42.9834   55.4324 H   0  0  0  0  0  0  0  0  0  0  0  0
    4.8005   42.7150   51.1374 H   0  0  0  0  0  0  0  0  0  0  0  0
    6.3819   42.1415   49.2955 H   0  0  0  0  0  0  0  0  0  0  0  0
    8.3423   45.9696   49.7696 H   0  0  0  0  0  0  0  0  0  0  0  0
  1  2  1  0
  2  3  2  0
  3  4  1  0
  4  5  1  0
  5  6  1  0
  6  7  2  0
  6  8  1  0
  8  9  1  0
  9 10  1  0
 10 11  1  0
 11 12  1  0
 12 13  1  0
 13 14  1  0
 13 15  1  0
 15 16  2  0
 16 17  1  0
 17 18  2  0
 18 19  1  0
 19 20  2  0
 12 21  1  0
 21 22  1  0
  4 23  2  0
 23 24  1  0
 24 25  1  0
 25 26  2  0
 26 27  1  0
 27 28  2  0
 28 29  1  0
 28 30  1  0
 30 31  2  0
 31 32  1  0
 24  2  1  0
 31 25  1  0
 22  9  1  0
 20 15  1  0
  1 33  1  0
  1 34  1  0
  1 35  1  0
  3 36  1  0
  5 37  1  0
  8 38  1  0
  9 39  1  0
 10 40  1  0
 10 41  1  0
 11 42  1  0
 11 43  1  0
 13 44  1  1
 14 45  1  0
 14 46  1  0
 14 47  1  0
 16 48  1  0
 17 49  1  0
 18 50  1  0
 19 51  1  0
 20 52  1  0
 21 53  1  0
 21 54  1  0
 22 55  1  0
 22 56  1  0
 26 57  1  0
 27 58  1  0
 30 59  1  0
M  END
>  <meeko>  (5) 
{"is_sidechain": [false], "free_energy": -8.425, "intermolecular_energy": -11.14, "internal_energy": -0.367}

$$$$
