MODEL 1
REMARK VINA RESULT:    -8.988      0.000      0.000
REMARK INTER + INTRA:         -13.282
REMARK INTER:                 -12.667
REMARK INTRA:                  -0.615
REMARK UNBOUND:                -0.615
REMARK SMILES COc1ccnc(N(C)C(=O)c2ccc(Oc3ccc(C(F)(F)F)cn3)cc2)n1
REMARK SMILES IDX 12 1 13 2 14 3 15 4 27 5 28 6 10 7 11 8 8 9 9 10 7 11 3 12
REMARK SMILES IDX 4 13 29 14 5 15 6 16 2 17 1 18 16 19 17 20 18 21 26 22 19 23
REMARK SMILES IDX 25 24 20 25 21 26 22 27 23 28 24 29
REMARK H PARENT
ROOT
ATOM      1  C   UNL     1       5.563  44.608  51.412  1.00  0.00     0.040 A 
ATOM      2  C   UNL     1       6.507  44.554  50.373  1.00  0.00     0.018 A 
ATOM      3  C   UNL     1       6.582  43.431  49.544  1.00  0.00     0.048 A 
ATOM      4  C   UNL     1       5.722  42.346  49.735  1.00  0.00     0.129 A 
ATOM      5  C   UNL     1       4.750  42.411  50.752  1.00  0.00     0.048 A 
ATOM      6  C   UNL     1       4.675  43.532  51.584  1.00  0.00     0.018 A 
ENDROOT
BRANCH   1   7
ATOM      7  C   UNL     1       5.474  45.799  52.292  1.00  0.00     0.260 C 
ATOM      8  O   UNL     1       4.729  46.762  51.959  1.00  0.00    -0.269 OA
BRANCH   7   9
ATOM      9  N   UNL     1       6.221  45.879  53.520  1.00  0.00    -0.280 N 
ATOM     10  C   UNL     1       5.564  45.572  54.795  1.00  0.00     0.157 C 
BRANCH   9  11
ATOM     11  C   UNL     1       7.579  46.360  53.517  1.00  0.00     0.235 A 
ATOM     12  C   UNL     1       9.370  47.438  54.643  1.00  0.00     0.217 A 
ATOM     13  C   UNL     1      10.189  47.256  53.529  1.00  0.00     0.088 A 
ATOM     14  N   UNL     1       8.087  46.987  54.615  1.00  0.00    -0.177 NA
ATOM     15  C   UNL     1       9.662  46.608  52.415  1.00  0.00     0.121 A 
ATOM     16  N   UNL     1       8.376  46.173  52.429  1.00  0.00    -0.221 NA
BRANCH  12  17
ATOM     17  O   UNL     1       9.880  48.079  55.777  1.00  0.00    -0.481 OA
ATOM     18  C   UNL     1      11.031  47.613  56.471  1.00  0.00     0.280 C 
ENDBRANCH  12  17
ENDBRANCH   9  11
ENDBRANCH   7   9
ENDBRANCH   1   7
BRANCH   4  19
ATOM     19  O   UNL     1       5.831  41.245  48.874  1.00  0.00    -0.439 OA
BRANCH  19  20
ATOM     20  C   UNL     1       5.035  41.019  47.742  1.00  0.00     0.219 A 
ATOM     21  C   UNL     1       5.440  41.538  46.510  1.00  0.00     0.069 A 
ATOM     22  N   UNL     1       3.903  40.265  47.814  1.00  0.00    -0.221 NA
ATOM     23  C   UNL     1       4.669  41.295  45.373  1.00  0.00     0.020 A 
ATOM     24  C   UNL     1       3.132  40.018  46.724  1.00  0.00     0.128 A 
ATOM     25  C   UNL     1       3.486  40.543  45.470  1.00  0.00     0.074 A 
BRANCH  25  26
ATOM     26  C   UNL     1       2.649  40.228  44.256  1.00  0.00     0.417 C 
ATOM     27  F   UNL     1       3.469  39.971  43.172  1.00  0.00    -0.166 F 
ATOM     28  F   UNL     1       1.843  41.313  43.965  1.00  0.00    -0.166 F 
ATOM     29  F   UNL     1       1.849  39.119  44.471  1.00  0.00    -0.166 F 
ENDBRANCH  25  26
ENDBRANCH  19  20
ENDBRANCH   4  19
TORSDOF 7
ENDMDL
MODEL 2
REMARK VINA RESULT:    -8.757      7.124     10.304
REMARK INTER + INTRA:         -12.956
REMARK INTER:                 -12.023
REMARK INTRA:                  -0.933
REMARK UNBOUND:                -0.615
REMARK SMILES COc1ccnc(N(C)C(=O)c2ccc(Oc3ccc(C(F)(F)F)cn3)cc2)n1
REMARK SMILES IDX 12 1 13 2 14 3 15 4 27 5 28 6 10 7 11 8 8 9 9 10 7 11 3 12
REMARK SMILES IDX 4 13 29 14 5 15 6 16 2 17 1 18 16 19 17 20 18 21 26 22 19 23
REMARK SMILES IDX 25 24 20 25 21 26 22 27 23 28 24 29
REMARK H PARENT
ROOT
ATOM      1  C   UNL     1       1.174  44.448  53.824  1.00  0.00     0.040 A 
ATOM      2  C   UNL     1       2.036  44.590  54.924  1.00  0.00     0.018 A 
ATOM      3  C   UNL     1       3.029  45.574  54.923  1.00  0.00     0.048 A 
ATOM      4  C   UNL     1       3.181  46.429  53.828  1.00  0.00     0.129 A 
ATOM      5  C   UNL     1       2.297  46.315  52.739  1.00  0.00     0.048 A 
ATOM      6  C   UNL     1       1.304  45.331  52.738  1.00  0.00     0.018 A 
ENDROOT
BRANCH   1   7
ATOM      7  C   UNL     1       0.114  43.411  53.822  1.00  0.00     0.260 C 
ATOM      8  O   UNL     1       0.436  42.195  53.715  1.00  0.00    -0.269 OA
BRANCH   7   9
ATOM      9  N   UNL     1      -1.277  43.762  53.942  1.00  0.00    -0.280 N 
ATOM     10  C   UNL     1      -2.093  43.931  52.736  1.00  0.00     0.157 C 
BRANCH   9  11
ATOM     11  C   UNL     1      -1.847  44.052  55.233  1.00  0.00     0.235 A 
ATOM     12  C   UNL     1      -2.888  43.291  57.228  1.00  0.00     0.217 A 
ATOM     13  C   UNL     1      -2.912  44.596  57.721  1.00  0.00     0.088 A 
ATOM     14  N   UNL     1      -2.357  43.047  55.999  1.00  0.00    -0.177 NA
ATOM     15  C   UNL     1      -2.381  45.614  56.932  1.00  0.00     0.121 A 
ATOM     16  N   UNL     1      -1.860  45.326  55.712  1.00  0.00    -0.221 NA
BRANCH  12  17
ATOM     17  O   UNL     1      -3.407  42.251  58.004  1.00  0.00    -0.481 OA
ATOM     18  C   UNL     1      -3.507  42.325  59.421  1.00  0.00     0.280 C 
ENDBRANCH  12  17
ENDBRANCH   9  11
ENDBRANCH   7   9
ENDBRANCH   1   7
BRANCH   4  19
ATOM     19  O   UNL     1       4.187  47.405  53.875  1.00  0.00    -0.439 OA
BRANCH  19  20
ATOM     20  C   UNL     1       5.545  47.184  53.603  1.00  0.00     0.219 A 
ATOM     21  C   UNL     1       5.930  46.813  52.313  1.00  0.00     0.069 A 
ATOM     22  N   UNL     1       6.496  47.370  54.561  1.00  0.00    -0.221 NA
ATOM     23  C   UNL     1       7.282  46.618  52.027  1.00  0.00     0.020 A 
ATOM     24  C   UNL     1       7.817  47.181  54.309  1.00  0.00     0.128 A 
ATOM     25  C   UNL     1       8.247  46.781  53.034  1.00  0.00     0.074 A 
BRANCH  25  26
ATOM     26  C   UNL     1       9.719  46.617  52.751  1.00  0.00     0.417 C 
ATOM     27  F   UNL     1      10.462  47.248  53.733  1.00  0.00    -0.166 F 
ATOM     28  F   UNL     1      10.013  47.188  51.526  1.00  0.00    -0.166 F 
ATOM     29  F   UNL     1      10.079  45.280  52.721  1.00  0.00    -0.166 F 
ENDBRANCH  25  26
ENDBRANCH  19  20
ENDBRANCH   4  19
TORSDOF 7
ENDMDL
MODEL 3
REMARK VINA RESULT:    -8.653      6.658      9.368
REMARK INTER + INTRA:         -12.808
REMARK INTER:                 -11.960
REMARK INTRA:                  -0.848
REMARK UNBOUND:                -0.615
REMARK SMILES COc1ccnc(N(C)C(=O)c2ccc(Oc3ccc(C(F)(F)F)cn3)cc2)n1
REMARK SMILES IDX 12 1 13 2 14 3 15 4 27 5 28 6 10 7 11 8 8 9 9 10 7 11 3 12
REMARK SMILES IDX 4 13 29 14 5 15 6 16 2 17 1 18 16 19 17 20 18 21 26 22 19 23
REMARK SMILES IDX 25 24 20 25 21 26 22 27 23 28 24 29
REMARK H PARENT
ROOT
ATOM      1  C   UNL     1       1.162  43.615  52.712  1.00  0.00     0.040 A 
ATOM      2  C   UNL     1       1.015  44.995  52.493  1.00  0.00     0.018 A 
ATOM      3  C   UNL     1       2.028  45.724  51.865  1.00  0.00     0.048 A 
ATOM      4  C   UNL     1       3.204  45.092  51.447  1.00  0.00     0.129 A 
ATOM      5  C   UNL     1       3.340  43.704  51.631  1.00  0.00     0.048 A 
ATOM      6  C   UNL     1       2.328  42.974  52.261  1.00  0.00     0.018 A 
ENDROOT
BRANCH   1   7
ATOM      7  C   UNL     1       0.087  42.835  53.373  1.00  0.00     0.260 C 
ATOM      8  O   UNL     1       0.344  41.686  53.828  1.00  0.00    -0.269 OA
BRANCH   7   9
ATOM      9  N   UNL     1      -1.246  43.364  53.507  1.00  0.00    -0.280 N 
ATOM     10  C   UNL     1      -2.082  43.546  52.317  1.00  0.00     0.157 C 
BRANCH   9  11
ATOM     11  C   UNL     1      -1.725  43.813  54.790  1.00  0.00     0.235 A 
ATOM     12  C   UNL     1      -1.351  44.997  56.814  1.00  0.00     0.217 A 
ATOM     13  C   UNL     1      -2.649  44.703  57.234  1.00  0.00     0.088 A 
ATOM     14  N   UNL     1      -0.918  44.549  55.604  1.00  0.00    -0.177 NA
ATOM     15  C   UNL     1      -3.467  43.956  56.390  1.00  0.00     0.121 A 
ATOM     16  N   UNL     1      -2.995  43.529  55.190  1.00  0.00    -0.221 NA
BRANCH  12  17
ATOM     17  O   UNL     1      -0.514  45.752  57.640  1.00  0.00    -0.481 OA
ATOM     18  C   UNL     1       0.874  45.924  57.377  1.00  0.00     0.280 C 
ENDBRANCH  12  17
ENDBRANCH   9  11
ENDBRANCH   7   9
ENDBRANCH   1   7
BRANCH   4  19
ATOM     19  O   UNL     1       4.190  45.863  50.816  1.00  0.00    -0.439 OA
BRANCH  19  20
ATOM     20  C   UNL     1       5.492  46.065  51.294  1.00  0.00     0.219 A 
ATOM     21  C   UNL     1       6.566  45.493  50.608  1.00  0.00     0.069 A 
ATOM     22  N   UNL     1       5.731  46.846  52.385  1.00  0.00    -0.221 NA
ATOM     23  C   UNL     1       7.868  45.711  51.061  1.00  0.00     0.020 A 
ATOM     24  C   UNL     1       6.987  47.069  52.849  1.00  0.00     0.128 A 
ATOM     25  C   UNL     1       8.094  46.491  52.207  1.00  0.00     0.074 A 
BRANCH  25  26
ATOM     26  C   UNL     1       9.489  46.779  52.702  1.00  0.00     0.417 C 
ATOM     27  F   UNL     1      10.364  46.853  51.633  1.00  0.00    -0.166 F 
ATOM     28  F   UNL     1       9.893  45.760  53.546  1.00  0.00    -0.166 F 
ATOM     29  F   UNL     1       9.540  47.979  53.392  1.00  0.00    -0.166 F 
ENDBRANCH  25  26
ENDBRANCH  19  20
ENDBRANCH   4  19
TORSDOF 7
ENDMDL
MODEL 4
REMARK VINA RESULT:    -8.553      6.346      8.893
REMARK INTER + INTRA:         -12.668
REMARK INTER:                 -12.011
REMARK INTRA:                  -0.657
REMARK UNBOUND:                -0.615
REMARK SMILES COc1ccnc(N(C)C(=O)c2ccc(Oc3ccc(C(F)(F)F)cn3)cc2)n1
REMARK SMILES IDX 12 1 13 2 14 3 15 4 27 5 28 6 10 7 11 8 8 9 9 10 7 11 3 12
REMARK SMILES IDX 4 13 29 14 5 15 6 16 2 17 1 18 16 19 17 20 18 21 26 22 19 23
REMARK SMILES IDX 25 24 20 25 21 26 22 27 23 28 24 29
REMARK H PARENT
ROOT
ATOM      1  C   UNL     1       1.298  43.558  52.551  1.00  0.00     0.040 A 
ATOM      2  C   UNL     1       2.488  42.815  52.633  1.00  0.00     0.018 A 
ATOM      3  C   UNL     1       3.635  43.239  51.956  1.00  0.00     0.048 A 
ATOM      4  C   UNL     1       3.616  44.407  51.186  1.00  0.00     0.129 A 
ATOM      5  C   UNL     1       2.437  45.173  51.131  1.00  0.00     0.048 A 
ATOM      6  C   UNL     1       1.288  44.750  51.806  1.00  0.00     0.018 A 
ENDROOT
BRANCH   1   7
ATOM      7  C   UNL     1       0.079  43.116  53.272  1.00  0.00     0.260 C 
ATOM      8  O   UNL     1      -0.222  41.891  53.289  1.00  0.00    -0.269 OA
BRANCH   7   9
ATOM      9  N   UNL     1      -0.768  44.058  53.956  1.00  0.00    -0.280 N 
ATOM     10  C   UNL     1      -2.069  44.419  53.383  1.00  0.00     0.157 C 
BRANCH   9  11
ATOM     11  C   UNL     1      -0.302  44.729  55.143  1.00  0.00     0.235 A 
ATOM     12  C   UNL     1      -0.781  45.897  57.155  1.00  0.00     0.217 A 
ATOM     13  C   UNL     1       0.583  45.987  57.435  1.00  0.00     0.088 A 
ATOM     14  N   UNL     1      -1.194  45.271  56.019  1.00  0.00    -0.177 NA
ATOM     15  C   UNL     1       1.485  45.423  56.536  1.00  0.00     0.121 A 
ATOM     16  N   UNL     1       1.030  44.807  55.415  1.00  0.00    -0.221 NA
BRANCH  12  17
ATOM     17  O   UNL     1      -1.706  46.448  58.046  1.00  0.00    -0.481 OA
ATOM     18  C   UNL     1      -1.745  47.836  58.353  1.00  0.00     0.280 C 
ENDBRANCH  12  17
ENDBRANCH   9  11
ENDBRANCH   7   9
ENDBRANCH   1   7
BRANCH   4  19
ATOM     19  O   UNL     1       4.792  44.795  50.531  1.00  0.00    -0.439 OA
BRANCH  19  20
ATOM     20  C   UNL     1       5.937  45.310  51.155  1.00  0.00     0.219 A 
ATOM     21  C   UNL     1       7.145  45.331  50.454  1.00  0.00     0.069 A 
ATOM     22  N   UNL     1       5.881  45.830  52.413  1.00  0.00    -0.221 NA
ATOM     23  C   UNL     1       8.283  45.866  51.058  1.00  0.00     0.020 A 
ATOM     24  C   UNL     1       6.976  46.351  53.026  1.00  0.00     0.128 A 
ATOM     25  C   UNL     1       8.217  46.368  52.368  1.00  0.00     0.074 A 
BRANCH  25  26
ATOM     26  C   UNL     1       9.417  46.989  53.037  1.00  0.00     0.417 C 
ATOM     27  F   UNL     1       9.151  48.309  53.353  1.00  0.00    -0.166 F 
ATOM     28  F   UNL     1      10.496  46.941  52.172  1.00  0.00    -0.166 F 
ATOM     29  F   UNL     1       9.746  46.318  54.203  1.00  0.00    -0.166 F 
ENDBRANCH  25  26
ENDBRANCH  19  20
ENDBRANCH   4  19
TORSDOF 7
ENDMDL
MODEL 5
REMARK VINA RESULT:    -8.191      6.622     10.483
REMARK INTER + INTRA:         -12.158
REMARK INTER:                 -11.260
REMARK INTRA:                  -0.898
REMARK UNBOUND:                -0.615
REMARK SMILES COc1ccnc(N(C)C(=O)c2ccc(Oc3ccc(C(F)(F)F)cn3)cc2)n1
REMARK SMILES IDX 12 1 13 2 14 3 15 4 27 5 28 6 10 7 11 8 8 9 9 10 7 11 3 12
REMARK SMILES IDX 4 13 29 14 5 15 6 16 2 17 1 18 16 19 17 20 18 21 26 22 19 23
REMARK SMILES IDX 25 24 20 25 21 26 22 27 23 28 24 29
REMARK H PARENT
ROOT
ATOM      1  C   UNL     1       1.080  44.367  53.488  1.00  0.00     0.040 A 
ATOM      2  C   UNL     1       1.183  45.384  52.524  1.00  0.00     0.018 A 
ATOM      3  C   UNL     1       2.172  46.366  52.634  1.00  0.00     0.048 A 
ATOM      4  C   UNL     1       3.072  46.352  53.704  1.00  0.00     0.129 A 
ATOM      5  C   UNL     1       2.995  45.315  54.652  1.00  0.00     0.048 A 
ATOM      6  C   UNL     1       2.005  44.334  54.546  1.00  0.00     0.018 A 
ENDROOT
BRANCH   1   7
ATOM      7  C   UNL     1       0.036  43.320  53.374  1.00  0.00     0.260 C 
ATOM      8  O   UNL     1       0.354  42.108  53.526  1.00  0.00    -0.269 OA
BRANCH   7   9
ATOM      9  N   UNL     1      -1.335  43.658  53.094  1.00  0.00    -0.280 N 
ATOM     10  C   UNL     1      -2.093  44.480  54.043  1.00  0.00     0.157 C 
BRANCH   9  11
ATOM     11  C   UNL     1      -2.000  43.107  51.940  1.00  0.00     0.235 A 
ATOM     12  C   UNL     1      -2.660  43.310  49.667  1.00  0.00     0.217 A 
ATOM     13  C   UNL     1      -3.245  42.045  49.718  1.00  0.00     0.088 A 
ATOM     14  N   UNL     1      -2.050  43.813  50.776  1.00  0.00    -0.177 NA
ATOM     15  C   UNL     1      -3.183  41.330  50.912  1.00  0.00     0.121 A 
ATOM     16  N   UNL     1      -2.564  41.869  51.993  1.00  0.00    -0.221 NA
BRANCH  12  17
ATOM     17  O   UNL     1      -2.703  44.043  48.478  1.00  0.00    -0.481 OA
ATOM     18  C   UNL     1      -3.180  45.382  48.418  1.00  0.00     0.280 C 
ENDBRANCH  12  17
ENDBRANCH   9  11
ENDBRANCH   7   9
ENDBRANCH   1   7
BRANCH   4  19
ATOM     19  O   UNL     1       4.051  47.354  53.768  1.00  0.00    -0.439 OA
BRANCH  19  20
ATOM     20  C   UNL     1       5.418  47.169  53.521  1.00  0.00     0.219 A 
ATOM     21  C   UNL     1       5.837  46.818  52.235  1.00  0.00     0.069 A 
ATOM     22  N   UNL     1       6.346  47.370  54.498  1.00  0.00    -0.221 NA
ATOM     23  C   UNL     1       7.198  46.659  51.973  1.00  0.00     0.020 A 
ATOM     24  C   UNL     1       7.676  47.215  54.270  1.00  0.00     0.128 A 
ATOM     25  C   UNL     1       8.139  46.837  52.999  1.00  0.00     0.074 A 
BRANCH  25  26
ATOM     26  C   UNL     1       9.620  46.711  52.743  1.00  0.00     0.417 C 
ATOM     27  F   UNL     1      10.328  47.395  53.716  1.00  0.00    -0.166 F 
ATOM     28  F   UNL     1       9.915  47.255  51.505  1.00  0.00    -0.166 F 
ATOM     29  F   UNL     1      10.023  45.387  52.759  1.00  0.00    -0.166 F 
ENDBRANCH  25  26
ENDBRANCH  19  20
ENDBRANCH   4  19
TORSDOF 7
ENDMDL
