ligand_83_conformer_4_docked
     RDKit          3D

 45 48  0  0  0  0  0  0  0  0999 V2000
    6.0080   43.6820   50.2840 C   0  0  0  0  0  0  0  0  0  0  0  0
    5.7400   44.9020   51.1780 C   0  0  1  0  0  0  0  0  0  0  0  0
    5.4400   44.4240   52.6120 C   0  0  0  0  0  0  0  0  0  0  0  0
    4.8210   45.4850   53.4170 N   0  0  0  0  0  0  0  0  0  0  0  0
    4.3210   45.2350   54.7450 C   0  0  0  0  0  0  0  0  0  0  0  0
    5.1270   45.1860   55.7140 O   0  0  0  0  0  0  0  0  0  0  0  0
    2.8920   44.9830   54.9980 C   0  0  0  0  0  0  0  0  0  0  0  0
    2.0260   44.3280   54.0970 C   0  0  0  0  0  0  0  0  0  0  0  0
    0.8230   44.3910   54.7490 C   0  0  0  0  0  0  0  0  0  0  0  0
   -0.4130   44.0260   54.5430 O   0  0  0  0  0  0  0  0  0  0  0  0
   -1.0810   44.4470   55.6170 C   0  0  0  0  0  0  0  0  0  0  0  0
   -2.9520   44.1880   55.8640 Br  0  0  0  0  0  0  0  0  0  0  0  0
   -0.2360   45.1030   56.5310 C   0  0  0  0  0  0  0  0  0  0  0  0
    0.9720   45.0160   55.8940 C   0  0  0  0  0  0  0  0  0  0  0  0
    2.2270   45.4190   56.1100 N   0  0  0  0  0  0  0  0  0  0  0  0
    4.6740   46.8140   52.8210 C   0  0  0  0  0  0  0  0  0  0  0  0
    6.0190   47.5510   52.7170 C   0  0  0  0  0  0  0  0  0  0  0  0
    7.1810   46.7170   52.3080 N   0  0  0  0  0  0  0  0  0  0  0  0
    8.4740   47.4410   52.3720 C   0  0  0  0  0  0  0  0  0  0  0  0
    9.0200   47.5550   53.7980 C   0  0  0  0  0  0  0  0  0  0  0  0
   10.2480   46.7520   53.4030 C   0  0  0  0  0  0  0  0  0  0  0  0
    9.6930   46.5900   51.9970 C   0  0  0  0  0  0  0  0  0  0  0  0
    6.9670   45.8750   51.1010 C   0  0  0  0  0  0  0  0  0  0  0  0
    6.2015   42.8012   50.9139 H   0  0  0  0  0  0  0  0  0  0  0  0
    5.1300   43.4928   49.6489 H   0  0  0  0  0  0  0  0  0  0  0  0
    6.8844   43.8782   49.6489 H   0  0  0  0  0  0  0  0  0  0  0  0
    4.8584   45.4615   50.8318 H   0  0  0  0  0  0  0  0  0  0  0  0
    4.7545   43.5649   52.5659 H   0  0  0  0  0  0  0  0  0  0  0  0
    6.3914   44.1423   53.0870 H   0  0  0  0  0  0  0  0  0  0  0  0
    2.2580   43.8804   53.1193 H   0  0  0  0  0  0  0  0  0  0  0  0
   -0.4811   45.5632   57.4996 H   0  0  0  0  0  0  0  0  0  0  0  0
    2.5930   45.9690   56.9200 H   0  0  0  0  0  0  0  0  0  0  0  0
    4.2496   46.7056   51.8120 H   0  0  0  0  0  0  0  0  0  0  0  0
    4.0118   47.4058   53.4700 H   0  0  0  0  0  0  0  0  0  0  0  0
    5.9058   48.3585   51.9786 H   0  0  0  0  0  0  0  0  0  0  0  0
    6.2466   47.9050   53.7333 H   0  0  0  0  0  0  0  0  0  0  0  0
    8.2166   48.3318   51.7802 H   0  0  0  0  0  0  0  0  0  0  0  0
    9.2412   48.5859   54.1115 H   0  0  0  0  0  0  0  0  0  0  0  0
    8.4042   47.2396   54.6531 H   0  0  0  0  0  0  0  0  0  0  0  0
   11.1894   47.3189   53.4512 H   0  0  0  0  0  0  0  0  0  0  0  0
   10.5468   45.8695   53.9877 H   0  0  0  0  0  0  0  0  0  0  0  0
   10.3242   47.0328   51.2125 H   0  0  0  0  0  0  0  0  0  0  0  0
    9.5574   45.5867   51.5669 H   0  0  0  0  0  0  0  0  0  0  0  0
    6.8178   46.5441   50.2408 H   0  0  0  0  0  0  0  0  0  0  0  0
    7.8586   45.2372   51.0104 H   0  0  0  0  0  0  0  0  0  0  0  0
  1  2  1  0
  2  3  1  0
  3  4  1  0
  4  5  1  0
  5  6  2  0
  5  7  1  0
  7  8  2  0
  8  9  1  0
  9 10  1  0
 10 11  1  0
 11 12  1  0
 11 13  2  0
 13 14  1  0
 14 15  1  0
  4 16  1  0
 16 17  1  0
 17 18  1  0
 18 19  1  0
 19 20  1  0
 20 21  1  0
 21 22  1  0
 18 23  1  0
 23  2  1  0
 15  7  1  0
 22 19  1  0
 14  9  2  0
  1 24  1  0
  1 25  1  0
  1 26  1  0
  2 27  1  6
  3 28  1  0
  3 29  1  0
  8 30  1  0
 13 31  1  0
 15 32  1  0
 16 33  1  0
 16 34  1  0
 17 35  1  0
 17 36  1  0
 19 37  1  0
 20 38  1  0
 20 39  1  0
 21 40  1  0
 21 41  1  0
 22 42  1  0
 22 43  1  0
 23 44  1  0
 23 45  1  0
M  END
>  <meeko>  (1) 
{"is_sidechain": [false], "free_energy": -6.645, "intermolecular_energy": -10.141, "internal_energy": 0.044}

$$$$
ligand_83_conformer_4_docked
     RDKit          3D

 45 48  0  0  0  0  0  0  0  0999 V2000
    5.9450   45.0750   50.4740 C   0  0  0  0  0  0  0  0  0  0  0  0
    5.1830   45.5840   51.7070 C   0  0  1  0  0  0  0  0  0  0  0  0
    5.0240   44.4300   52.7160 C   0  0  0  0  0  0  0  0  0  0  0  0
    4.6960   44.9270   54.0580 N   0  0  0  0  0  0  0  0  0  0  0  0
    3.3440   45.2490   54.4380 C   0  0  0  0  0  0  0  0  0  0  0  0
    3.1390   46.0290   55.4080 O   0  0  0  0  0  0  0  0  0  0  0  0
    2.1850   44.6500   53.7520 C   0  0  0  0  0  0  0  0  0  0  0  0
    1.3020   45.3590   52.9120 C   0  0  0  0  0  0  0  0  0  0  0  0
    0.3840   44.3990   52.5740 C   0  0  0  0  0  0  0  0  0  0  0  0
   -0.7050   44.3060   51.8620 O   0  0  0  0  0  0  0  0  0  0  0  0
   -1.1040   43.0430   52.0060 C   0  0  0  0  0  0  0  0  0  0  0  0
   -2.6650   42.3290   51.1800 Br  0  0  0  0  0  0  0  0  0  0  0  0
   -0.2350   42.3140   52.8410 C   0  0  0  0  0  0  0  0  0  0  0  0
    0.6970   43.2650   53.1560 C   0  0  0  0  0  0  0  0  0  0  0  0
    1.7970   43.3490   53.9100 N   0  0  0  0  0  0  0  0  0  0  0  0
    5.7900   45.1390   55.0080 C   0  0  0  0  0  0  0  0  0  0  0  0
    6.6230   46.3840   54.6590 C   0  0  0  0  0  0  0  0  0  0  0  0
    7.0270   46.5080   53.2330 N   0  0  0  0  0  0  0  0  0  0  0  0
    8.2840   47.2750   53.0450 C   0  0  0  0  0  0  0  0  0  0  0  0
    9.4830   46.6290   53.7460 C   0  0  0  0  0  0  0  0  0  0  0  0
   10.1770   46.4430   52.4080 C   0  0  0  0  0  0  0  0  0  0  0  0
    8.9730   47.0360   51.6960 C   0  0  0  0  0  0  0  0  0  0  0  0
    5.9260   46.8240   52.2840 C   0  0  0  0  0  0  0  0  0  0  0  0
    6.8190   44.4912   50.7983 H   0  0  0  0  0  0  0  0  0  0  0  0
    5.2819   44.4378   49.8704 H   0  0  0  0  0  0  0  0  0  0  0  0
    6.2797   45.9315   49.8704 H   0  0  0  0  0  0  0  0  0  0  0  0
    4.1668   45.9150   51.4468 H   0  0  0  0  0  0  0  0  0  0  0  0
    4.2167   43.7656   52.3742 H   0  0  0  0  0  0  0  0  0  0  0  0
    5.9801   43.8890   52.7735 H   0  0  0  0  0  0  0  0  0  0  0  0
    1.3402   46.4148   52.6056 H   0  0  0  0  0  0  0  0  0  0  0  0
   -0.2907   41.2615   53.1558 H   0  0  0  0  0  0  0  0  0  0  0  0
    2.2260   42.6030   54.5030 H   0  0  0  0  0  0  0  0  0  0  0  0
    5.3662   45.2661   56.0151 H   0  0  0  0  0  0  0  0  0  0  0  0
    6.4535   44.2628   54.9632 H   0  0  0  0  0  0  0  0  0  0  0  0
    6.0298   47.2725   54.9211 H   0  0  0  0  0  0  0  0  0  0  0  0
    7.5586   46.2896   55.2297 H   0  0  0  0  0  0  0  0  0  0  0  0
    7.9300   48.2805   53.3164 H   0  0  0  0  0  0  0  0  0  0  0  0
   10.0138   47.3014   54.4360 H   0  0  0  0  0  0  0  0  0  0  0  0
    9.3351   45.7701   54.4171 H   0  0  0  0  0  0  0  0  0  0  0  0
   11.0993   47.0318   52.2956 H   0  0  0  0  0  0  0  0  0  0  0  0
   10.5641   45.4557   52.1158 H   0  0  0  0  0  0  0  0  0  0  0  0
    9.1925   47.9568   51.1357 H   0  0  0  0  0  0  0  0  0  0  0  0
    8.4613   46.4679   50.9051 H   0  0  0  0  0  0  0  0  0  0  0  0
    5.1898   47.4492   52.8105 H   0  0  0  0  0  0  0  0  0  0  0  0
    6.3932   47.3306   51.4266 H   0  0  0  0  0  0  0  0  0  0  0  0
  1  2  1  0
  2  3  1  0
  3  4  1  0
  4  5  1  0
  5  6  2  0
  5  7  1  0
  7  8  2  0
  8  9  1  0
  9 10  1  0
 10 11  1  0
 11 12  1  0
 11 13  2  0
 13 14  1  0
 14 15  1  0
  4 16  1  0
 16 17  1  0
 17 18  1  0
 18 19  1  0
 19 20  1  0
 20 21  1  0
 21 22  1  0
 18 23  1  0
 23  2  1  0
 15  7  1  0
 22 19  1  0
 14  9  2  0
  1 24  1  0
  1 25  1  0
  1 26  1  0
  2 27  1  6
  3 28  1  0
  3 29  1  0
  8 30  1  0
 13 31  1  0
 15 32  1  0
 16 33  1  0
 16 34  1  0
 17 35  1  0
 17 36  1  0
 19 37  1  0
 20 38  1  0
 20 39  1  0
 21 40  1  0
 21 41  1  0
 22 42  1  0
 22 43  1  0
 23 44  1  0
 23 45  1  0
M  END
>  <meeko>  (2) 
{"is_sidechain": [false], "free_energy": -6.574, "intermolecular_energy": -9.91, "internal_energy": -0.078}

$$$$
ligand_83_conformer_4_docked
     RDKit          3D

 45 48  0  0  0  0  0  0  0  0999 V2000
    7.6050   43.4170   49.3280 C   0  0  0  0  0  0  0  0  0  0  0  0
    6.5350   44.3300   49.9430 C   0  0  1  0  0  0  0  0  0  0  0  0
    5.7880   43.5620   51.0520 C   0  0  0  0  0  0  0  0  0  0  0  0
    4.4890   44.1760   51.3540 N   0  0  0  0  0  0  0  0  0  0  0  0
    3.3660   43.3920   51.8010 C   0  0  0  0  0  0  0  0  0  0  0  0
    3.1090   42.2940   51.2360 O   0  0  0  0  0  0  0  0  0  0  0  0
    2.4740   43.8630   52.8750 C   0  0  0  0  0  0  0  0  0  0  0  0
    1.0760   43.9970   52.7480 C   0  0  0  0  0  0  0  0  0  0  0  0
    0.7190   44.5100   53.9670 C   0  0  0  0  0  0  0  0  0  0  0  0
   -0.3680   44.9010   54.5750 O   0  0  0  0  0  0  0  0  0  0  0  0
    0.0390   45.3260   55.7710 C   0  0  0  0  0  0  0  0  0  0  0  0
   -1.1360   46.0210   57.1000 Br  0  0  0  0  0  0  0  0  0  0  0  0
    1.4330   45.1990   55.9210 C   0  0  0  0  0  0  0  0  0  0  0  0
    1.7870   44.6610   54.7140 C   0  0  0  0  0  0  0  0  0  0  0  0
    2.9130   44.2880   54.0980 N   0  0  0  0  0  0  0  0  0  0  0  0
    4.3350   45.6170   51.1460 C   0  0  0  0  0  0  0  0  0  0  0  0
    5.3320   46.4310   51.9890 C   0  0  0  0  0  0  0  0  0  0  0  0
    6.7620   46.0520   51.8380 N   0  0  0  0  0  0  0  0  0  0  0  0
    7.6880   46.9610   52.5570 C   0  0  0  0  0  0  0  0  0  0  0  0
    8.7210   46.2100   53.4010 C   0  0  0  0  0  0  0  0  0  0  0  0
    9.8460   46.8010   52.5690 C   0  0  0  0  0  0  0  0  0  0  0  0
    8.8290   47.5130   51.6930 C   0  0  0  0  0  0  0  0  0  0  0  0
    7.1750   45.6580   50.4650 C   0  0  0  0  0  0  0  0  0  0  0  0
    8.1766   42.9293   50.1313 H   0  0  0  0  0  0  0  0  0  0  0  0
    7.1196   42.6505   48.7060 H   0  0  0  0  0  0  0  0  0  0  0  0
    8.2855   44.0170   48.7060 H   0  0  0  0  0  0  0  0  0  0  0  0
    5.8024   44.6170   49.1743 H   0  0  0  0  0  0  0  0  0  0  0  0
    5.6247   42.5259   50.7207 H   0  0  0  0  0  0  0  0  0  0  0  0
    6.4024   43.5907   51.9640 H   0  0  0  0  0  0  0  0  0  0  0  0
    0.4349   43.7519   51.8884 H   0  0  0  0  0  0  0  0  0  0  0  0
    2.0682   45.4622   56.7797 H   0  0  0  0  0  0  0  0  0  0  0  0
    3.8910   44.3480   54.4600 H   0  0  0  0  0  0  0  0  0  0  0  0
    4.5025   45.8422   50.0824 H   0  0  0  0  0  0  0  0  0  0  0  0
    3.3181   45.8983   51.4570 H   0  0  0  0  0  0  0  0  0  0  0  0
    5.2306   47.4888   51.7048 H   0  0  0  0  0  0  0  0  0  0  0  0
    5.0759   46.2255   53.0388 H   0  0  0  0  0  0  0  0  0  0  0  0
    6.9574   47.6448   53.0137 H   0  0  0  0  0  0  0  0  0  0  0  0
    8.7400   46.5123   54.4585 H   0  0  0  0  0  0  0  0  0  0  0  0
    8.6426   45.1205   53.5310 H   0  0  0  0  0  0  0  0  0  0  0  0
   10.5090   47.4781   53.1276 H   0  0  0  0  0  0  0  0  0  0  0  0
   10.6063   46.1464   52.1179 H   0  0  0  0  0  0  0  0  0  0  0  0
    8.9132   48.6096   51.7094 H   0  0  0  0  0  0  0  0  0  0  0  0
    8.8270   47.3542   50.6045 H   0  0  0  0  0  0  0  0  0  0  0  0
    6.8916   46.4680   49.7768 H   0  0  0  0  0  0  0  0  0  0  0  0
    8.2602   45.4832   50.5064 H   0  0  0  0  0  0  0  0  0  0  0  0
  1  2  1  0
  2  3  1  0
  3  4  1  0
  4  5  1  0
  5  6  2  0
  5  7  1  0
  7  8  2  0
  8  9  1  0
  9 10  1  0
 10 11  1  0
 11 12  1  0
 11 13  2  0
 13 14  1  0
 14 15  1  0
  4 16  1  0
 16 17  1  0
 17 18  1  0
 18 19  1  0
 19 20  1  0
 20 21  1  0
 21 22  1  0
 18 23  1  0
 23  2  1  0
 15  7  1  0
 22 19  1  0
 14  9  2  0
  1 24  1  0
  1 25  1  0
  1 26  1  0
  2 27  1  6
  3 28  1  0
  3 29  1  0
  8 30  1  0
 13 31  1  0
 15 32  1  0
 16 33  1  0
 16 34  1  0
 17 35  1  0
 17 36  1  0
 19 37  1  0
 20 38  1  0
 20 39  1  0
 21 40  1  0
 21 41  1  0
 22 42  1  0
 22 43  1  0
 23 44  1  0
 23 45  1  0
M  END
>  <meeko>  (3) 
{"is_sidechain": [false], "free_energy": -6.517, "intermolecular_energy": -9.818, "internal_energy": -0.085}

$$$$
ligand_83_conformer_4_docked
     RDKit          3D

 45 48  0  0  0  0  0  0  0  0999 V2000
    4.2850   47.9330   53.8270 C   0  0  0  0  0  0  0  0  0  0  0  0
    4.7990   46.5950   53.2770 C   0  0  1  0  0  0  0  0  0  0  0  0
    4.2690   46.3970   51.8440 C   0  0  0  0  0  0  0  0  0  0  0  0
    4.6960   45.1100   51.2810 N   0  0  0  0  0  0  0  0  0  0  0  0
    3.9890   43.8870   51.5620 C   0  0  0  0  0  0  0  0  0  0  0  0
    4.4980   42.7830   51.2260 O   0  0  0  0  0  0  0  0  0  0  0  0
    2.6570   43.8920   52.1900 C   0  0  0  0  0  0  0  0  0  0  0  0
    1.4410   43.9730   51.4800 C   0  0  0  0  0  0  0  0  0  0  0  0
    0.5140   44.0000   52.4890 C   0  0  0  0  0  0  0  0  0  0  0  0
   -0.7820   44.0820   52.6140 O   0  0  0  0  0  0  0  0  0  0  0  0
   -1.0030   44.0830   53.9280 C   0  0  0  0  0  0  0  0  0  0  0  0
   -2.7390   44.1890   54.7070 Br  0  0  0  0  0  0  0  0  0  0  0  0
    0.1980   44.0000   54.6580 C   0  0  0  0  0  0  0  0  0  0  0  0
    1.1220   43.9450   53.6510 C   0  0  0  0  0  0  0  0  0  0  0  0
    2.4530   43.8860   53.5420 N   0  0  0  0  0  0  0  0  0  0  0  0
    5.9030   45.0810   50.4520 C   0  0  0  0  0  0  0  0  0  0  0  0
    7.1600   45.4700   51.2490 C   0  0  0  0  0  0  0  0  0  0  0  0
    7.0470   46.7100   52.0630 N   0  0  0  0  0  0  0  0  0  0  0  0
    8.2980   47.5080   52.0920 C   0  0  0  0  0  0  0  0  0  0  0  0
    8.7080   47.9160   53.5090 C   0  0  0  0  0  0  0  0  0  0  0  0
    9.9990   47.1270   53.3730 C   0  0  0  0  0  0  0  0  0  0  0  0
    9.5800   46.6740   51.9840 C   0  0  0  0  0  0  0  0  0  0  0  0
    6.3450   46.5560   53.3650 C   0  0  0  0  0  0  0  0  0  0  0  0
    4.2955   47.9057   54.9266 H   0  0  0  0  0  0  0  0  0  0  0  0
    4.9340   48.7481   53.4742 H   0  0  0  0  0  0  0  0  0  0  0  0
    3.2572   48.1039   53.4742 H   0  0  0  0  0  0  0  0  0  0  0  0
    4.4252   45.7545   53.8801 H   0  0  0  0  0  0  0  0  0  0  0  0
    3.1697   46.4311   51.8624 H   0  0  0  0  0  0  0  0  0  0  0  0
    4.6773   47.2002   51.2129 H   0  0  0  0  0  0  0  0  0  0  0  0
    1.2781   44.0061   50.3926 H   0  0  0  0  0  0  0  0  0  0  0  0
    0.3521   43.9837   55.7470 H   0  0  0  0  0  0  0  0  0  0  0  0
    3.1590   43.8770   54.3120 H   0  0  0  0  0  0  0  0  0  0  0  0
    6.0357   44.0643   50.0537 H   0  0  0  0  0  0  0  0  0  0  0  0
    5.7753   45.8130   49.6409 H   0  0  0  0  0  0  0  0  0  0  0  0
    7.3999   44.6394   51.9291 H   0  0  0  0  0  0  0  0  0  0  0  0
    7.9404   45.6716   50.5004 H   0  0  0  0  0  0  0  0  0  0  0  0
    8.0579   48.2574   51.3234 H   0  0  0  0  0  0  0  0  0  0  0  0
    8.8563   48.9983   53.6380 H   0  0  0  0  0  0  0  0  0  0  0  0
    8.0318   47.7293   54.3563 H   0  0  0  0  0  0  0  0  0  0  0  0
   10.9074   47.7472   53.3875 H   0  0  0  0  0  0  0  0  0  0  0  0
   10.2813   46.3876   54.1369 H   0  0  0  0  0  0  0  0  0  0  0  0
   10.2598   46.9989   51.1826 H   0  0  0  0  0  0  0  0  0  0  0  0
    9.5258   45.6021   51.7430 H   0  0  0  0  0  0  0  0  0  0  0  0
    6.6389   45.5894   53.8002 H   0  0  0  0  0  0  0  0  0  0  0  0
    6.6423   47.4173   53.9813 H   0  0  0  0  0  0  0  0  0  0  0  0
  1  2  1  0
  2  3  1  0
  3  4  1  0
  4  5  1  0
  5  6  2  0
  5  7  1  0
  7  8  2  0
  8  9  1  0
  9 10  1  0
 10 11  1  0
 11 12  1  0
 11 13  2  0
 13 14  1  0
 14 15  1  0
  4 16  1  0
 16 17  1  0
 17 18  1  0
 18 19  1  0
 19 20  1  0
 20 21  1  0
 21 22  1  0
 18 23  1  0
 23  2  1  0
 15  7  1  0
 22 19  1  0
 14  9  2  0
  1 24  1  0
  1 25  1  0
  1 26  1  0
  2 27  1  1
  3 28  1  0
  3 29  1  0
  8 30  1  0
 13 31  1  0
 15 32  1  0
 16 33  1  0
 16 34  1  0
 17 35  1  0
 17 36  1  0
 19 37  1  0
 20 38  1  0
 20 39  1  0
 21 40  1  0
 21 41  1  0
 22 42  1  0
 22 43  1  0
 23 44  1  0
 23 45  1  0
M  END
>  <meeko>  (4) 
{"is_sidechain": [false], "free_energy": -6.483, "intermolecular_energy": -9.707, "internal_energy": -0.144}

$$$$
ligand_83_conformer_4_docked
     RDKit          3D

 45 48  0  0  0  0  0  0  0  0999 V2000
    4.3310   46.7390   54.9710 C   0  0  0  0  0  0  0  0  0  0  0  0
    5.1960   45.5250   54.6010 C   0  0  1  0  0  0  0  0  0  0  0  0
    4.5480   44.7820   53.4170 C   0  0  0  0  0  0  0  0  0  0  0  0
    4.1780   45.7040   52.3360 N   0  0  0  0  0  0  0  0  0  0  0  0
    2.8680   46.2960   52.2600 C   0  0  0  0  0  0  0  0  0  0  0  0
    2.7470   47.5500   52.3270 O   0  0  0  0  0  0  0  0  0  0  0  0
    1.6510   45.4710   52.1560 C   0  0  0  0  0  0  0  0  0  0  0  0
    1.4800   44.4160   51.2360 C   0  0  0  0  0  0  0  0  0  0  0  0
    0.1950   44.0120   51.4900 C   0  0  0  0  0  0  0  0  0  0  0  0
   -0.6490   43.1240   51.0420 O   0  0  0  0  0  0  0  0  0  0  0  0
   -1.7610   43.3150   51.7510 C   0  0  0  0  0  0  0  0  0  0  0  0
   -3.3500   42.2890   51.5210 Br  0  0  0  0  0  0  0  0  0  0  0  0
   -1.6120   44.3630   52.6800 C   0  0  0  0  0  0  0  0  0  0  0  0
   -0.3200   44.7500   52.4450 C   0  0  0  0  0  0  0  0  0  0  0  0
    0.5230   45.6820   52.9000 N   0  0  0  0  0  0  0  0  0  0  0  0
    5.1650   45.9800   51.2900 C   0  0  0  0  0  0  0  0  0  0  0  0
    6.6060   45.9100   51.8230 C   0  0  0  0  0  0  0  0  0  0  0  0
    6.8790   46.7100   53.0470 N   0  0  0  0  0  0  0  0  0  0  0  0
    8.1230   47.5130   52.9560 C   0  0  0  0  0  0  0  0  0  0  0  0
    9.3360   46.7990   53.5590 C   0  0  0  0  0  0  0  0  0  0  0  0
   10.0230   46.8020   52.2040 C   0  0  0  0  0  0  0  0  0  0  0  0
    8.8060   47.4660   51.5840 C   0  0  0  0  0  0  0  0  0  0  0  0
    6.6580   46.0000   54.3350 C   0  0  0  0  0  0  0  0  0  0  0  0
    4.2695   46.8253   56.0659 H   0  0  0  0  0  0  0  0  0  0  0  0
    4.7835   47.6517   54.5561 H   0  0  0  0  0  0  0  0  0  0  0  0
    3.3205   46.6094   54.5561 H   0  0  0  0  0  0  0  0  0  0  0  0
    5.2512   44.8003   55.4267 H   0  0  0  0  0  0  0  0  0  0  0  0
    5.2622   44.0423   53.0261 H   0  0  0  0  0  0  0  0  0  0  0  0
    3.6322   44.2918   53.7789 H   0  0  0  0  0  0  0  0  0  0  0  0
    2.1957   44.0184   50.5014 H   0  0  0  0  0  0  0  0  0  0  0  0
   -2.3393   44.7635   53.4015 H   0  0  0  0  0  0  0  0  0  0  0  0
    0.3400   46.4140   53.6220 H   0  0  0  0  0  0  0  0  0  0  0  0
    5.0474   45.2381   50.4864 H   0  0  0  0  0  0  0  0  0  0  0  0
    4.9897   47.0006   50.9189 H   0  0  0  0  0  0  0  0  0  0  0  0
    6.8322   44.8576   52.0493 H   0  0  0  0  0  0  0  0  0  0  0  0
    7.2395   46.3419   51.0342 H   0  0  0  0  0  0  0  0  0  0  0  0
    7.7560   48.4679   53.3604 H   0  0  0  0  0  0  0  0  0  0  0  0
    9.8620   47.3826   54.3289 H   0  0  0  0  0  0  0  0  0  0  0  0
    9.2056   45.8568   54.1116 H   0  0  0  0  0  0  0  0  0  0  0  0
   10.9362   47.4140   52.1655 H   0  0  0  0  0  0  0  0  0  0  0  0
   10.4218   45.8680   51.7814 H   0  0  0  0  0  0  0  0  0  0  0  0
    9.0084   48.4564   51.1502 H   0  0  0  0  0  0  0  0  0  0  0  0
    8.2969   47.0004   50.7272 H   0  0  0  0  0  0  0  0  0  0  0  0
    7.3095   45.1138   54.3490 H   0  0  0  0  0  0  0  0  0  0  0  0
    6.8849   46.7316   55.1245 H   0  0  0  0  0  0  0  0  0  0  0  0
  1  2  1  0
  2  3  1  0
  3  4  1  0
  4  5  1  0
  5  6  2  0
  5  7  1  0
  7  8  2  0
  8  9  1  0
  9 10  1  0
 10 11  1  0
 11 12  1  0
 11 13  2  0
 13 14  1  0
 14 15  1  0
  4 16  1  0
 16 17  1  0
 17 18  1  0
 18 19  1  0
 19 20  1  0
 20 21  1  0
 21 22  1  0
 18 23  1  0
 23  2  1  0
 15  7  1  0
 22 19  1  0
 14  9  2  0
  1 24  1  0
  1 25  1  0
  1 26  1  0
  2 27  1  1
  3 28  1  0
  3 29  1  0
  8 30  1  0
 13 31  1  0
 15 32  1  0
 16 33  1  0
 16 34  1  0
 17 35  1  0
 17 36  1  0
 19 37  1  0
 20 38  1  0
 20 39  1  0
 21 40  1  0
 21 41  1  0
 22 42  1  0
 22 43  1  0
 23 44  1  0
 23 45  1  0
M  END
>  <meeko>  (5) 
{"is_sidechain": [false], "free_energy": -6.183, "intermolecular_energy": -9.767, "internal_energy": 0.375}

$$$$
