ligand_92_conformer_4_docked
     RDKit          3D

 35 37  0  0  0  0  0  0  0  0999 V2000
    1.9280   46.0010   54.0570 O   0  0  0  0  0  0  0  0  0  0  0  0
    3.0770   46.1390   53.5580 C   0  0  0  0  0  0  0  0  0  0  0  0
    3.2570   46.1740   52.0710 C   0  0  0  0  0  0  0  0  0  0  0  0
    4.6010   45.5230   51.6370 C   0  0  2  0  0  0  0  0  0  0  0  0
    4.8790   45.8460   50.2890 O   0  0  0  0  0  0  0  0  0  0  0  0
    4.5070   44.0110   51.7840 C   0  0  0  0  0  0  0  0  0  0  0  0
    3.7850   43.5080   52.6880 O   0  0  0  0  0  0  0  0  0  0  0  0
    5.1610   43.1300   50.8660 N   0  0  0  0  0  0  0  0  0  0  0  0
    5.2190   41.6710   50.6610 C   0  0  0  0  0  0  0  0  0  0  0  0
    6.1080   41.7140   49.4560 C   0  0  0  0  0  0  0  0  0  0  0  0
    5.4380   41.2470   48.1600 C   0  0  0  0  0  0  0  0  0  0  0  0
    6.0110   41.8970   47.0820 F   0  0  0  0  0  0  0  0  0  0  0  0
    6.0410   43.1920   49.6830 C   0  0  0  0  0  0  0  0  0  0  0  0
    5.7510   46.0520   52.4990 C   0  0  0  0  0  0  0  0  0  0  0  0
    7.0690   46.0690   52.0010 C   0  0  0  0  0  0  0  0  0  0  0  0
    8.1320   46.4750   52.8150 C   0  0  0  0  0  0  0  0  0  0  0  0
    9.9100   46.5050   52.1180 Br  0  0  0  0  0  0  0  0  0  0  0  0
    7.8970   46.8430   54.1410 C   0  0  0  0  0  0  0  0  0  0  0  0
    6.6020   46.8010   54.6600 C   0  0  0  0  0  0  0  0  0  0  0  0
    5.5280   46.4040   53.8510 C   0  0  0  0  0  0  0  0  0  0  0  0
    4.2070   46.3410   54.4060 N   0  0  0  0  0  0  0  0  0  0  0  0
    2.4275   45.6271   51.5989 H   0  0  0  0  0  0  0  0  0  0  0  0
    3.2682   47.2268   51.7524 H   0  0  0  0  0  0  0  0  0  0  0  0
    5.7820   45.5120   50.0480 H   0  0  0  0  0  0  0  0  0  0  0  0
    5.6783   41.1412   51.5086 H   0  0  0  0  0  0  0  0  0  0  0  0
    4.2604   41.1416   50.5572 H   0  0  0  0  0  0  0  0  0  0  0  0
    7.0444   41.1448   49.3602 H   0  0  0  0  0  0  0  0  0  0  0  0
    5.5745   40.1613   48.0478 H   0  0  0  0  0  0  0  0  0  0  0  0
    4.3638   41.4806   48.1990 H   0  0  0  0  0  0  0  0  0  0  0  0
    7.0239   43.6319   49.9077 H   0  0  0  0  0  0  0  0  0  0  0  0
    5.7036   43.8131   48.8401 H   0  0  0  0  0  0  0  0  0  0  0  0
    7.2638   45.7604   50.9633 H   0  0  0  0  0  0  0  0  0  0  0  0
    8.7336   47.1665   54.7777 H   0  0  0  0  0  0  0  0  0  0  0  0
    6.4232   47.0807   55.7087 H   0  0  0  0  0  0  0  0  0  0  0  0
    4.0610   46.4550   55.4350 H   0  0  0  0  0  0  0  0  0  0  0  0
  1  2  2  0
  2  3  1  0
  3  4  1  0
  4  5  1  6
  4  6  1  0
  6  7  2  0
  6  8  1  0
  8  9  1  0
  9 10  1  0
 10 11  1  0
 11 12  1  0
 10 13  1  0
  4 14  1  0
 14 15  2  0
 15 16  1  0
 16 17  1  0
 16 18  2  0
 18 19  1  0
 19 20  2  0
 20 21  1  0
 21  2  1  0
 13  8  1  0
 20 14  1  0
  3 22  1  0
  3 23  1  0
  5 24  1  0
  9 25  1  0
  9 26  1  0
 10 27  1  0
 11 28  1  0
 11 29  1  0
 13 30  1  0
 13 31  1  0
 15 32  1  0
 18 33  1  0
 19 34  1  0
 21 35  1  0
M  END
>  <meeko>  (1) 
{"is_sidechain": [false], "free_energy": -8.479, "intermolecular_energy": -9.718, "internal_energy": 0.357}

$$$$
ligand_92_conformer_4_docked
     RDKit          3D

 35 37  0  0  0  0  0  0  0  0999 V2000
    4.0600   48.5280   54.5350 O   0  0  0  0  0  0  0  0  0  0  0  0
    4.4830   47.8620   53.5530 C   0  0  0  0  0  0  0  0  0  0  0  0
    3.5410   47.4230   52.4740 C   0  0  0  0  0  0  0  0  0  0  0  0
    3.9450   46.0410   51.8830 C   0  0  2  0  0  0  0  0  0  0  0  0
    3.2380   45.8070   50.6820 O   0  0  0  0  0  0  0  0  0  0  0  0
    3.6180   44.9430   52.8840 C   0  0  0  0  0  0  0  0  0  0  0  0
    4.5490   44.3150   53.4600 O   0  0  0  0  0  0  0  0  0  0  0  0
    2.2680   44.6480   53.2550 N   0  0  0  0  0  0  0  0  0  0  0  0
    1.6090   43.7450   54.2160 C   0  0  0  0  0  0  0  0  0  0  0  0
    0.2080   44.1750   53.9060 C   0  0  0  0  0  0  0  0  0  0  0  0
   -0.4960   44.9060   55.0550 C   0  0  0  0  0  0  0  0  0  0  0  0
   -1.3310   44.0260   55.7200 F   0  0  0  0  0  0  0  0  0  0  0  0
    0.8950   45.0830   52.9340 C   0  0  0  0  0  0  0  0  0  0  0  0
    5.4430   46.0170   51.5650 C   0  0  0  0  0  0  0  0  0  0  0  0
    5.9480   45.1600   50.5670 C   0  0  0  0  0  0  0  0  0  0  0  0
    7.3240   45.0760   50.3310 C   0  0  0  0  0  0  0  0  0  0  0  0
    7.9890   43.9200   48.9630 Br  0  0  0  0  0  0  0  0  0  0  0  0
    8.2130   45.8240   51.1030 C   0  0  0  0  0  0  0  0  0  0  0  0
    7.7320   46.6530   52.1180 C   0  0  0  0  0  0  0  0  0  0  0  0
    6.3550   46.7520   52.3580 C   0  0  0  0  0  0  0  0  0  0  0  0
    5.8770   47.5880   53.4210 N   0  0  0  0  0  0  0  0  0  0  0  0
    2.5274   47.3481   52.8947 H   0  0  0  0  0  0  0  0  0  0  0  0
    3.5781   48.1661   51.6638 H   0  0  0  0  0  0  0  0  0  0  0  0
    2.3000   46.1120   50.7860 H   0  0  0  0  0  0  0  0  0  0  0  0
    1.7865   42.6830   53.9907 H   0  0  0  0  0  0  0  0  0  0  0  0
    1.9316   43.8099   55.2656 H   0  0  0  0  0  0  0  0  0  0  0  0
   -0.6044   43.4831   53.6391 H   0  0  0  0  0  0  0  0  0  0  0  0
    0.2562   45.2978   55.7555 H   0  0  0  0  0  0  0  0  0  0  0  0
   -1.0896   45.7388   54.6500 H   0  0  0  0  0  0  0  0  0  0  0  0
    0.6172   44.8754   51.8901 H   0  0  0  0  0  0  0  0  0  0  0  0
    0.6789   46.1585   53.0151 H   0  0  0  0  0  0  0  0  0  0  0  0
    5.2540   44.5518   49.9683 H   0  0  0  0  0  0  0  0  0  0  0  0
    9.2944   45.7606   50.9118 H   0  0  0  0  0  0  0  0  0  0  0  0
    8.4375   47.2314   52.7325 H   0  0  0  0  0  0  0  0  0  0  0  0
    6.5490   48.0130   54.0990 H   0  0  0  0  0  0  0  0  0  0  0  0
  1  2  2  0
  2  3  1  0
  3  4  1  0
  4  5  1  6
  4  6  1  0
  6  7  2  0
  6  8  1  0
  8  9  1  0
  9 10  1  0
 10 11  1  0
 11 12  1  0
 10 13  1  0
  4 14  1  0
 14 15  2  0
 15 16  1  0
 16 17  1  0
 16 18  2  0
 18 19  1  0
 19 20  2  0
 20 21  1  0
 21  2  1  0
 13  8  1  0
 20 14  1  0
  3 22  1  0
  3 23  1  0
  5 24  1  0
  9 25  1  0
  9 26  1  0
 10 27  1  0
 11 28  1  0
 11 29  1  0
 13 30  1  0
 13 31  1  0
 15 32  1  0
 18 33  1  0
 19 34  1  0
 21 35  1  0
M  END
>  <meeko>  (2) 
{"is_sidechain": [false], "free_energy": -8.275, "intermolecular_energy": -8.902, "internal_energy": -0.225}

$$$$
ligand_92_conformer_4_docked
     RDKit          3D

 35 37  0  0  0  0  0  0  0  0999 V2000
    3.5630   41.0850   50.2930 O   0  0  0  0  0  0  0  0  0  0  0  0
    4.2070   42.0250   50.8290 C   0  0  0  0  0  0  0  0  0  0  0  0
    3.9730   42.3810   52.2660 C   0  0  0  0  0  0  0  0  0  0  0  0
    4.1290   43.9080   52.5150 C   0  0  2  0  0  0  0  0  0  0  0  0
    4.2100   44.1630   53.9030 O   0  0  0  0  0  0  0  0  0  0  0  0
    2.9300   44.6450   51.9350 C   0  0  0  0  0  0  0  0  0  0  0  0
    3.0360   45.2590   50.8380 O   0  0  0  0  0  0  0  0  0  0  0  0
    1.6480   44.5980   52.5680 N   0  0  0  0  0  0  0  0  0  0  0  0
    0.2970   45.1020   52.2580 C   0  0  0  0  0  0  0  0  0  0  0  0
   -0.3700   44.5280   53.4690 C   0  0  0  0  0  0  0  0  0  0  0  0
   -1.3860   43.4210   53.1660 C   0  0  0  0  0  0  0  0  0  0  0  0
   -2.6190   43.7670   53.6880 F   0  0  0  0  0  0  0  0  0  0  0  0
    1.0080   44.0280   53.7700 C   0  0  0  0  0  0  0  0  0  0  0  0
    5.4140   44.4250   51.8610 C   0  0  0  0  0  0  0  0  0  0  0  0
    6.0610   45.5710   52.3640 C   0  0  0  0  0  0  0  0  0  0  0  0
    7.1880   46.0920   51.7200 C   0  0  0  0  0  0  0  0  0  0  0  0
    8.0610   47.6380   52.4250 Br  0  0  0  0  0  0  0  0  0  0  0  0
    7.6670   45.4930   50.5530 C   0  0  0  0  0  0  0  0  0  0  0  0
    7.0180   44.3760   50.0240 C   0  0  0  0  0  0  0  0  0  0  0  0
    5.8930   43.8400   50.6650 C   0  0  0  0  0  0  0  0  0  0  0  0
    5.2220   42.7090   50.0950 N   0  0  0  0  0  0  0  0  0  0  0  0
    2.9540   42.0766   52.5469 H   0  0  0  0  0  0  0  0  0  0  0  0
    4.7241   41.8566   52.8750 H   0  0  0  0  0  0  0  0  0  0  0  0
    3.4360   44.7170   54.1830 H   0  0  0  0  0  0  0  0  0  0  0  0
    0.2504   46.2006   52.2285 H   0  0  0  0  0  0  0  0  0  0  0  0
   -0.1253   44.8321   51.2788 H   0  0  0  0  0  0  0  0  0  0  0  0
   -0.9825   45.1138   54.1702 H   0  0  0  0  0  0  0  0  0  0  0  0
   -1.4727   43.2918   52.0771 H   0  0  0  0  0  0  0  0  0  0  0  0
   -1.0472   42.4794   53.6228 H   0  0  0  0  0  0  0  0  0  0  0  0
    1.4151   44.4418   54.7044 H   0  0  0  0  0  0  0  0  0  0  0  0
    1.1236   42.9464   53.9337 H   0  0  0  0  0  0  0  0  0  0  0  0
    5.6765   46.0603   53.2711 H   0  0  0  0  0  0  0  0  0  0  0  0
    8.5561   45.9015   50.0504 H   0  0  0  0  0  0  0  0  0  0  0  0
    7.3919   43.9138   49.0985 H   0  0  0  0  0  0  0  0  0  0  0  0
    5.4800   42.3690   49.1400 H   0  0  0  0  0  0  0  0  0  0  0  0
  1  2  2  0
  2  3  1  0
  3  4  1  0
  4  5  1  1
  4  6  1  0
  6  7  2  0
  6  8  1  0
  8  9  1  0
  9 10  1  0
 10 11  1  0
 11 12  1  0
 10 13  1  0
  4 14  1  0
 14 15  2  0
 15 16  1  0
 16 17  1  0
 16 18  2  0
 18 19  1  0
 19 20  2  0
 20 21  1  0
 21  2  1  0
 13  8  1  0
 20 14  1  0
  3 22  1  0
  3 23  1  0
  5 24  1  0
  9 25  1  0
  9 26  1  0
 10 27  1  0
 11 28  1  0
 11 29  1  0
 13 30  1  0
 13 31  1  0
 15 32  1  0
 18 33  1  0
 19 34  1  0
 21 35  1  0
M  END
>  <meeko>  (3) 
{"is_sidechain": [false], "free_energy": -8.234, "intermolecular_energy": -8.845, "internal_energy": -0.235}

$$$$
ligand_92_conformer_4_docked
     RDKit          3D

 35 37  0  0  0  0  0  0  0  0999 V2000
    6.1250   44.0110   50.3410 O   0  0  0  0  0  0  0  0  0  0  0  0
    5.0870   44.3300   50.9810 C   0  0  0  0  0  0  0  0  0  0  0  0
    4.6930   45.7700   51.1130 C   0  0  0  0  0  0  0  0  0  0  0  0
    4.0180   46.0590   52.4840 C   0  0  2  0  0  0  0  0  0  0  0  0
    3.3880   47.3240   52.4530 O   0  0  0  0  0  0  0  0  0  0  0  0
    5.0690   46.0450   53.5840 C   0  0  0  0  0  0  0  0  0  0  0  0
    4.8740   45.3770   54.6370 O   0  0  0  0  0  0  0  0  0  0  0  0
    6.3230   46.7150   53.4260 N   0  0  0  0  0  0  0  0  0  0  0  0
    7.5610   46.8400   54.2160 C   0  0  0  0  0  0  0  0  0  0  0  0
    8.2980   47.6880   53.2270 C   0  0  0  0  0  0  0  0  0  0  0  0
    9.5100   47.0030   52.5850 C   0  0  0  0  0  0  0  0  0  0  0  0
   10.6230   47.1870   53.3850 F   0  0  0  0  0  0  0  0  0  0  0  0
    7.0320   47.5540   52.4400 C   0  0  0  0  0  0  0  0  0  0  0  0
    2.9480   45.0040   52.7830 C   0  0  0  0  0  0  0  0  0  0  0  0
    1.8600   45.3070   53.6250 C   0  0  0  0  0  0  0  0  0  0  0  0
    0.9270   44.3220   53.9650 C   0  0  0  0  0  0  0  0  0  0  0  0
   -0.5500   44.7560   55.0950 Br  0  0  0  0  0  0  0  0  0  0  0  0
    1.0820   43.0180   53.4920 C   0  0  0  0  0  0  0  0  0  0  0  0
    2.1720   42.6920   52.6830 C   0  0  0  0  0  0  0  0  0  0  0  0
    3.1100   43.6730   52.3290 C   0  0  0  0  0  0  0  0  0  0  0  0
    4.2380   43.3180   51.5190 N   0  0  0  0  0  0  0  0  0  0  0  0
    5.5929   46.3957   51.0199 H   0  0  0  0  0  0  0  0  0  0  0  0
    3.9680   46.0011   50.3187 H   0  0  0  0  0  0  0  0  0  0  0  0
    4.0300   48.0200   52.7480 H   0  0  0  0  0  0  0  0  0  0  0  0
    7.4013   47.3508   55.1770 H   0  0  0  0  0  0  0  0  0  0  0  0
    8.0473   45.9063   54.5348 H   0  0  0  0  0  0  0  0  0  0  0  0
    8.7747   48.6480   53.4741 H   0  0  0  0  0  0  0  0  0  0  0  0
    9.3089   45.9267   52.4790 H   0  0  0  0  0  0  0  0  0  0  0  0
    9.6955   47.4417   51.5935 H   0  0  0  0  0  0  0  0  0  0  0  0
    6.5344   48.5199   52.2684 H   0  0  0  0  0  0  0  0  0  0  0  0
    7.1176   47.1603   51.4165 H   0  0  0  0  0  0  0  0  0  0  0  0
    1.7431   46.3275   54.0186 H   0  0  0  0  0  0  0  0  0  0  0  0
    0.3444   42.2462   53.7570 H   0  0  0  0  0  0  0  0  0  0  0  0
    2.2959   41.6606   52.3213 H   0  0  0  0  0  0  0  0  0  0  0  0
    4.4400   42.3140   51.3080 H   0  0  0  0  0  0  0  0  0  0  0  0
  1  2  2  0
  2  3  1  0
  3  4  1  0
  4  5  1  6
  4  6  1  0
  6  7  2  0
  6  8  1  0
  8  9  1  0
  9 10  1  0
 10 11  1  0
 11 12  1  0
 10 13  1  0
  4 14  1  0
 14 15  2  0
 15 16  1  0
 16 17  1  0
 16 18  2  0
 18 19  1  0
 19 20  2  0
 20 21  1  0
 21  2  1  0
 13  8  1  0
 20 14  1  0
  3 22  1  0
  3 23  1  0
  5 24  1  0
  9 25  1  0
  9 26  1  0
 10 27  1  0
 11 28  1  0
 11 29  1  0
 13 30  1  0
 13 31  1  0
 15 32  1  0
 18 33  1  0
 19 34  1  0
 21 35  1  0
M  END
>  <meeko>  (4) 
{"is_sidechain": [false], "free_energy": -8.223, "intermolecular_energy": -9.027, "internal_energy": -0.041}

$$$$
ligand_92_conformer_4_docked
     RDKit          3D

 35 37  0  0  0  0  0  0  0  0999 V2000
    5.9790   44.9660   56.1600 O   0  0  0  0  0  0  0  0  0  0  0  0
    5.0520   44.8110   55.3210 C   0  0  0  0  0  0  0  0  0  0  0  0
    5.3510   44.2760   53.9530 C   0  0  0  0  0  0  0  0  0  0  0  0
    4.4200   44.9010   52.8740 C   0  0  2  0  0  0  0  0  0  0  0  0
    4.5130   44.1620   51.6730 O   0  0  0  0  0  0  0  0  0  0  0  0
    4.8350   46.3410   52.6140 C   0  0  0  0  0  0  0  0  0  0  0  0
    3.9590   47.2450   52.5200 O   0  0  0  0  0  0  0  0  0  0  0  0
    6.2130   46.7210   52.5470 N   0  0  0  0  0  0  0  0  0  0  0  0
    6.9550   47.9860   52.3990 C   0  0  0  0  0  0  0  0  0  0  0  0
    8.3230   47.3810   52.4790 C   0  0  0  0  0  0  0  0  0  0  0  0
    9.1170   47.7790   53.7280 C   0  0  0  0  0  0  0  0  0  0  0  0
   10.4180   47.3220   53.6150 F   0  0  0  0  0  0  0  0  0  0  0  0
    7.5530   46.1050   52.6250 C   0  0  0  0  0  0  0  0  0  0  0  0
    2.9630   44.8640   53.3440 C   0  0  0  0  0  0  0  0  0  0  0  0
    1.9100   44.8430   52.4070 C   0  0  0  0  0  0  0  0  0  0  0  0
    0.5790   44.8920   52.8320 C   0  0  0  0  0  0  0  0  0  0  0  0
   -0.8350   44.8480   51.5480 Br  0  0  0  0  0  0  0  0  0  0  0  0
    0.2810   44.9880   54.1920 C   0  0  0  0  0  0  0  0  0  0  0  0
    1.3120   45.0420   55.1310 C   0  0  0  0  0  0  0  0  0  0  0  0
    2.6510   44.9860   54.7180 C   0  0  0  0  0  0  0  0  0  0  0  0
    3.6990   45.0690   55.6930 N   0  0  0  0  0  0  0  0  0  0  0  0
    6.3960   44.5084   53.7000 H   0  0  0  0  0  0  0  0  0  0  0  0
    5.1804   43.1894   53.9651 H   0  0  0  0  0  0  0  0  0  0  0  0
    4.5530   44.7860   50.9030 H   0  0  0  0  0  0  0  0  0  0  0  0
    6.7649   48.4789   51.4342 H   0  0  0  0  0  0  0  0  0  0  0  0
    6.7210   48.7895   53.1129 H   0  0  0  0  0  0  0  0  0  0  0  0
    9.1137   47.5449   51.7321 H   0  0  0  0  0  0  0  0  0  0  0  0
    9.1209   48.8746   53.8258 H   0  0  0  0  0  0  0  0  0  0  0  0
    8.6483   47.3320   54.6171 H   0  0  0  0  0  0  0  0  0  0  0  0
    7.7436   45.3978   51.8043 H   0  0  0  0  0  0  0  0  0  0  0  0
    7.7698   45.4874   53.5090 H   0  0  0  0  0  0  0  0  0  0  0  0
    2.1375   44.7876   51.3322 H   0  0  0  0  0  0  0  0  0  0  0  0
   -0.7672   45.0211   54.5240 H   0  0  0  0  0  0  0  0  0  0  0  0
    1.0730   45.1290   56.2012 H   0  0  0  0  0  0  0  0  0  0  0  0
    3.4770   45.3070   56.6860 H   0  0  0  0  0  0  0  0  0  0  0  0
  1  2  2  0
  2  3  1  0
  3  4  1  0
  4  5  1  6
  4  6  1  0
  6  7  2  0
  6  8  1  0
  8  9  1  0
  9 10  1  0
 10 11  1  0
 11 12  1  0
 10 13  1  0
  4 14  1  0
 14 15  2  0
 15 16  1  0
 16 17  1  0
 16 18  2  0
 18 19  1  0
 19 20  2  0
 20 21  1  0
 21  2  1  0
 13  8  1  0
 20 14  1  0
  3 22  1  0
  3 23  1  0
  5 24  1  0
  9 25  1  0
  9 26  1  0
 10 27  1  0
 11 28  1  0
 11 29  1  0
 13 30  1  0
 13 31  1  0
 15 32  1  0
 18 33  1  0
 19 34  1  0
 21 35  1  0
M  END
>  <meeko>  (5) 
{"is_sidechain": [false], "free_energy": -7.777, "intermolecular_energy": -8.562, "internal_energy": 0.005}

$$$$
