ligand_45_conformer_2_docked
     RDKit          3D

 49 51  0  0  0  0  0  0  0  0999 V2000
    9.0530   48.5740   55.2960 C   0  0  0  0  0  0  0  0  0  0  0  0
    9.8430   47.3300   55.3070 N   0  0  0  0  0  0  0  0  0  0  0  0
   11.0430   47.5160   56.1400 C   0  0  0  0  0  0  0  0  0  0  0  0
   10.2080   46.9350   53.9260 C   0  0  0  0  0  0  0  0  0  0  0  0
    9.2420   47.5450   52.8990 C   0  0  0  0  0  0  0  0  0  0  0  0
    8.8780   46.5480   51.8270 C   0  0  0  0  0  0  0  0  0  0  0  0
    7.5360   46.3660   51.4550 C   0  0  0  0  0  0  0  0  0  0  0  0
    7.1910   45.3980   50.5050 C   0  0  0  0  0  0  0  0  0  0  0  0
    8.1820   44.5900   49.9260 C   0  0  0  0  0  0  0  0  0  0  0  0
    7.8030   43.5190   48.9360 C   0  0  0  0  0  0  0  0  0  0  0  0
    6.4380   43.0530   49.1800 N   0  0  0  0  0  0  0  0  0  0  0  0
    6.1510   41.7760   49.7700 C   0  0  0  0  0  0  0  0  0  0  0  0
    7.0900   41.0270   50.1630 O   0  0  0  0  0  0  0  0  0  0  0  0
    4.7310   41.3160   49.9210 C   0  0  0  0  0  0  0  0  0  0  0  0
    4.0020   42.1810   50.9130 C   0  0  0  0  0  0  0  0  0  0  0  0
    2.5860   42.2420   50.9050 C   0  0  0  0  0  0  0  0  0  0  0  0
    1.9020   43.0740   51.8040 C   0  0  0  0  0  0  0  0  0  0  0  0
    2.6510   43.8420   52.6930 C   0  0  0  0  0  0  0  0  0  0  0  0
    2.1070   44.9230   53.8580 S   0  0  0  0  0  0  0  0  0  0  0  0
    3.6510   45.3590   54.4010 C   0  0  0  0  0  0  0  0  0  0  0  0
    4.6070   44.6550   53.6680 C   0  0  0  0  0  0  0  0  0  0  0  0
    4.0370   43.8050   52.7110 C   0  0  0  0  0  0  0  0  0  0  0  0
    4.7330   42.9770   51.8240 C   0  0  0  0  0  0  0  0  0  0  0  0
    9.5250   44.7700   50.3000 C   0  0  0  0  0  0  0  0  0  0  0  0
    9.8690   45.7410   51.2460 C   0  0  0  0  0  0  0  0  0  0  0  0
    8.8523   48.8900   56.3303 H   0  0  0  0  0  0  0  0  0  0  0  0
    9.6167   49.3617   54.7747 H   0  0  0  0  0  0  0  0  0  0  0  0
    8.1003   48.3988   54.7747 H   0  0  0  0  0  0  0  0  0  0  0  0
   10.7621   47.4725   57.2026 H   0  0  0  0  0  0  0  0  0  0  0  0
   11.7692   46.7197   55.9198 H   0  0  0  0  0  0  0  0  0  0  0  0
   11.4941   48.4948   55.9198 H   0  0  0  0  0  0  0  0  0  0  0  0
   11.2283   47.2851   53.7107 H   0  0  0  0  0  0  0  0  0  0  0  0
   10.1494   45.8392   53.8506 H   0  0  0  0  0  0  0  0  0  0  0  0
    8.3255   47.8655   53.4159 H   0  0  0  0  0  0  0  0  0  0  0  0
    9.7400   48.4015   52.4210 H   0  0  0  0  0  0  0  0  0  0  0  0
    6.7522   46.9874   51.9126 H   0  0  0  0  0  0  0  0  0  0  0  0
    6.1388   45.2698   50.2108 H   0  0  0  0  0  0  0  0  0  0  0  0
    7.8686   43.9287   47.9172 H   0  0  0  0  0  0  0  0  0  0  0  0
    8.4934   42.6702   49.0496 H   0  0  0  0  0  0  0  0  0  0  0  0
    5.6470   43.6690   48.8850 H   0  0  0  0  0  0  0  0  0  0  0  0
    4.2248   41.3768   48.9463 H   0  0  0  0  0  0  0  0  0  0  0  0
    4.7291   40.2776   50.2839 H   0  0  0  0  0  0  0  0  0  0  0  0
    2.0182   41.6315   50.1874 H   0  0  0  0  0  0  0  0  0  0  0  0
    0.8029   43.1188   51.8069 H   0  0  0  0  0  0  0  0  0  0  0  0
    3.8656   46.0811   55.2026 H   0  0  0  0  0  0  0  0  0  0  0  0
    5.6911   44.7563   53.8245 H   0  0  0  0  0  0  0  0  0  0  0  0
    5.8325   42.9458   51.8353 H   0  0  0  0  0  0  0  0  0  0  0  0
   10.3084   44.1448   49.8469 H   0  0  0  0  0  0  0  0  0  0  0  0
   10.9217   45.8731   51.5364 H   0  0  0  0  0  0  0  0  0  0  0  0
  1  2  1  0
  2  3  1  0
  2  4  1  0
  4  5  1  0
  5  6  1  0
  6  7  2  0
  7  8  1  0
  8  9  2  0
  9 10  1  0
 10 11  1  0
 11 12  1  0
 12 13  2  0
 12 14  1  0
 14 15  1  0
 15 16  2  0
 16 17  1  0
 17 18  2  0
 18 19  1  0
 19 20  1  0
 20 21  2  0
 21 22  1  0
 22 23  2  0
  9 24  1  0
 24 25  2  0
 25  6  1  0
 23 15  1  0
 22 18  1  0
  1 26  1  0
  1 27  1  0
  1 28  1  0
  3 29  1  0
  3 30  1  0
  3 31  1  0
  4 32  1  0
  4 33  1  0
  5 34  1  0
  5 35  1  0
  7 36  1  0
  8 37  1  0
 10 38  1  0
 10 39  1  0
 11 40  1  0
 14 41  1  0
 14 42  1  0
 16 43  1  0
 17 44  1  0
 20 45  1  0
 21 46  1  0
 23 47  1  0
 24 48  1  0
 25 49  1  0
M  END
>  <meeko>  (1) 
{"is_sidechain": [false], "free_energy": -8.581, "intermolecular_energy": -12.093, "internal_energy": -0.979}

$$$$
ligand_45_conformer_2_docked
     RDKit          3D

 49 51  0  0  0  0  0  0  0  0999 V2000
    0.7930   44.5280   51.4540 C   0  0  0  0  0  0  0  0  0  0  0  0
    1.5930   44.2780   52.6660 N   0  0  0  0  0  0  0  0  0  0  0  0
    1.3500   42.9070   53.1420 C   0  0  0  0  0  0  0  0  0  0  0  0
    1.2700   45.2730   53.7150 C   0  0  0  0  0  0  0  0  0  0  0  0
    2.0180   44.9680   55.0220 C   0  0  0  0  0  0  0  0  0  0  0  0
    3.4410   45.4660   54.9700 C   0  0  0  0  0  0  0  0  0  0  0  0
    3.7090   46.8150   54.6840 C   0  0  0  0  0  0  0  0  0  0  0  0
    5.0290   47.2650   54.5750 C   0  0  0  0  0  0  0  0  0  0  0  0
    6.0980   46.3690   54.7370 C   0  0  0  0  0  0  0  0  0  0  0  0
    7.5180   46.8480   54.5770 C   0  0  0  0  0  0  0  0  0  0  0  0
    8.0700   46.4030   53.2980 N   0  0  0  0  0  0  0  0  0  0  0  0
    7.8950   47.1420   52.0800 C   0  0  0  0  0  0  0  0  0  0  0  0
    7.3010   48.2570   52.0890 O   0  0  0  0  0  0  0  0  0  0  0  0
    8.4140   46.5950   50.7830 C   0  0  0  0  0  0  0  0  0  0  0  0
    7.7370   45.2910   50.4560 C   0  0  0  0  0  0  0  0  0  0  0  0
    8.3000   44.4150   49.4950 C   0  0  0  0  0  0  0  0  0  0  0  0
    7.6560   43.2150   49.1580 C   0  0  0  0  0  0  0  0  0  0  0  0
    6.4490   42.9170   49.7860 C   0  0  0  0  0  0  0  0  0  0  0  0
    5.4630   41.5730   49.5720 S   0  0  0  0  0  0  0  0  0  0  0  0
    4.2830   42.0660   50.6830 C   0  0  0  0  0  0  0  0  0  0  0  0
    4.6570   43.2940   51.2300 C   0  0  0  0  0  0  0  0  0  0  0  0
    5.8750   43.7640   50.7210 C   0  0  0  0  0  0  0  0  0  0  0  0
    6.5080   44.9620   51.0690 C   0  0  0  0  0  0  0  0  0  0  0  0
    5.8290   45.0190   55.0220 C   0  0  0  0  0  0  0  0  0  0  0  0
    4.5100   44.5710   55.1340 C   0  0  0  0  0  0  0  0  0  0  0  0
   -0.2202   44.8446   51.7423 H   0  0  0  0  0  0  0  0  0  0  0  0
    1.2689   45.3203   50.8575 H   0  0  0  0  0  0  0  0  0  0  0  0
    0.7331   43.6057   50.8575 H   0  0  0  0  0  0  0  0  0  0  0  0
    1.3480   42.8957   54.2419 H   0  0  0  0  0  0  0  0  0  0  0  0
    0.3758   42.5570   52.7699 H   0  0  0  0  0  0  0  0  0  0  0  0
    2.1445   42.2435   52.7699 H   0  0  0  0  0  0  0  0  0  0  0  0
    1.5596   46.2735   53.3614 H   0  0  0  0  0  0  0  0  0  0  0  0
    0.1892   45.2290   53.9148 H   0  0  0  0  0  0  0  0  0  0  0  0
    1.4966   45.4603   55.8562 H   0  0  0  0  0  0  0  0  0  0  0  0
    2.0375   43.8773   55.1637 H   0  0  0  0  0  0  0  0  0  0  0  0
    2.8769   47.5209   54.5451 H   0  0  0  0  0  0  0  0  0  0  0  0
    5.2304   48.3251   54.3615 H   0  0  0  0  0  0  0  0  0  0  0  0
    7.5353   47.9472   54.6154 H   0  0  0  0  0  0  0  0  0  0  0  0
    8.1275   46.4293   55.3914 H   0  0  0  0  0  0  0  0  0  0  0  0
    8.5870   45.4950   53.2750 H   0  0  0  0  0  0  0  0  0  0  0  0
    8.2149   47.3186   49.9788 H   0  0  0  0  0  0  0  0  0  0  0  0
    9.4963   46.4220   50.8759 H   0  0  0  0  0  0  0  0  0  0  0  0
    9.2509   44.6783   49.0087 H   0  0  0  0  0  0  0  0  0  0  0  0
    8.0924   42.5281   48.4179 H   0  0  0  0  0  0  0  0  0  0  0  0
    3.3688   41.5077   50.9330 H   0  0  0  0  0  0  0  0  0  0  0  0
    4.0603   43.8345   51.9796 H   0  0  0  0  0  0  0  0  0  0  0  0
    6.0551   45.6379   51.8093 H   0  0  0  0  0  0  0  0  0  0  0  0
    6.6607   44.3119   55.1575 H   0  0  0  0  0  0  0  0  0  0  0  0
    4.3084   43.5118   55.3517 H   0  0  0  0  0  0  0  0  0  0  0  0
  1  2  1  0
  2  3  1  0
  2  4  1  0
  4  5  1  0
  5  6  1  0
  6  7  2  0
  7  8  1  0
  8  9  2  0
  9 10  1  0
 10 11  1  0
 11 12  1  0
 12 13  2  0
 12 14  1  0
 14 15  1  0
 15 16  2  0
 16 17  1  0
 17 18  2  0
 18 19  1  0
 19 20  1  0
 20 21  2  0
 21 22  1  0
 22 23  2  0
  9 24  1  0
 24 25  2  0
 25  6  1  0
 23 15  1  0
 22 18  1  0
  1 26  1  0
  1 27  1  0
  1 28  1  0
  3 29  1  0
  3 30  1  0
  3 31  1  0
  4 32  1  0
  4 33  1  0
  5 34  1  0
  5 35  1  0
  7 36  1  0
  8 37  1  0
 10 38  1  0
 10 39  1  0
 11 40  1  0
 14 41  1  0
 14 42  1  0
 16 43  1  0
 17 44  1  0
 20 45  1  0
 21 46  1  0
 23 47  1  0
 24 48  1  0
 25 49  1  0
M  END
>  <meeko>  (2) 
{"is_sidechain": [false], "free_energy": -8.227, "intermolecular_energy": -11.2, "internal_energy": -1.373}

$$$$
ligand_45_conformer_2_docked
     RDKit          3D

 49 51  0  0  0  0  0  0  0  0999 V2000
   10.0870   46.2940   51.9030 C   0  0  0  0  0  0  0  0  0  0  0  0
    9.5420   47.4080   52.6990 N   0  0  0  0  0  0  0  0  0  0  0  0
    9.8060   47.1680   54.1270 C   0  0  0  0  0  0  0  0  0  0  0  0
    8.0910   47.5670   52.4440 C   0  0  0  0  0  0  0  0  0  0  0  0
    7.2560   46.8320   53.5040 C   0  0  0  0  0  0  0  0  0  0  0  0
    6.3310   45.8220   52.8720 C   0  0  0  0  0  0  0  0  0  0  0  0
    5.5120   45.0110   53.6750 C   0  0  0  0  0  0  0  0  0  0  0  0
    4.7000   44.0320   53.0920 C   0  0  0  0  0  0  0  0  0  0  0  0
    4.7060   43.8420   51.7010 C   0  0  0  0  0  0  0  0  0  0  0  0
    3.8620   42.7580   51.0820 C   0  0  0  0  0  0  0  0  0  0  0  0
    2.8260   42.3170   52.0150 N   0  0  0  0  0  0  0  0  0  0  0  0
    1.5360   42.9420   52.0910 C   0  0  0  0  0  0  0  0  0  0  0  0
    1.2280   43.8700   51.2910 O   0  0  0  0  0  0  0  0  0  0  0  0
    0.5420   42.5000   53.1240 C   0  0  0  0  0  0  0  0  0  0  0  0
    0.3520   43.5730   54.1620 C   0  0  0  0  0  0  0  0  0  0  0  0
    1.4700   44.2740   54.6780 C   0  0  0  0  0  0  0  0  0  0  0  0
    1.3040   45.2510   55.6720 C   0  0  0  0  0  0  0  0  0  0  0  0
    0.0170   45.5010   56.1410 C   0  0  0  0  0  0  0  0  0  0  0  0
   -0.4720   46.5930   57.3210 S   0  0  0  0  0  0  0  0  0  0  0  0
   -2.1170   46.2000   57.2250 C   0  0  0  0  0  0  0  0  0  0  0  0
   -2.2930   45.2060   56.2620 C   0  0  0  0  0  0  0  0  0  0  0  0
   -1.0890   44.8200   55.6580 C   0  0  0  0  0  0  0  0  0  0  0  0
   -0.9400   43.8460   54.6640 C   0  0  0  0  0  0  0  0  0  0  0  0
    5.5270   44.6520   50.8980 C   0  0  0  0  0  0  0  0  0  0  0  0
    6.3350   45.6330   51.4800 C   0  0  0  0  0  0  0  0  0  0  0  0
   10.4688   45.5136   52.5777 H   0  0  0  0  0  0  0  0  0  0  0  0
    9.2927   45.8737   51.2686 H   0  0  0  0  0  0  0  0  0  0  0  0
   10.9063   46.6631   51.2686 H   0  0  0  0  0  0  0  0  0  0  0  0
    9.1273   47.7850   54.7341 H   0  0  0  0  0  0  0  0  0  0  0  0
    9.6399   46.1052   54.3570 H   0  0  0  0  0  0  0  0  0  0  0  0
   10.8482   47.4344   54.3570 H   0  0  0  0  0  0  0  0  0  0  0  0
    7.8380   48.6373   52.4669 H   0  0  0  0  0  0  0  0  0  0  0  0
    7.8614   47.1348   51.4589 H   0  0  0  0  0  0  0  0  0  0  0  0
    7.9342   46.3121   54.1967 H   0  0  0  0  0  0  0  0  0  0  0  0
    6.6452   47.5738   54.0394 H   0  0  0  0  0  0  0  0  0  0  0  0
    5.5090   45.1462   54.7667 H   0  0  0  0  0  0  0  0  0  0  0  0
    4.0536   43.4080   53.7267 H   0  0  0  0  0  0  0  0  0  0  0  0
    3.3855   43.1471   50.1701 H   0  0  0  0  0  0  0  0  0  0  0  0
    4.5076   41.9015   50.8379 H   0  0  0  0  0  0  0  0  0  0  0  0
    3.0530   41.5330   52.6680 H   0  0  0  0  0  0  0  0  0  0  0  0
   -0.4216   42.2940   52.6350 H   0  0  0  0  0  0  0  0  0  0  0  0
    0.9185   41.5907   53.6154 H   0  0  0  0  0  0  0  0  0  0  0  0
    2.4771   44.0505   54.2962 H   0  0  0  0  0  0  0  0  0  0  0  0
    2.1675   45.8043   56.0698 H   0  0  0  0  0  0  0  0  0  0  0  0
   -2.9180   46.6555   57.8257 H   0  0  0  0  0  0  0  0  0  0  0  0
   -3.2707   44.7724   56.0048 H   0  0  0  0  0  0  0  0  0  0  0  0
   -1.8152   43.3016   54.2797 H   0  0  0  0  0  0  0  0  0  0  0  0
    5.5338   44.5134   49.8068 H   0  0  0  0  0  0  0  0  0  0  0  0
    6.9774   46.2603   50.8446 H   0  0  0  0  0  0  0  0  0  0  0  0
  1  2  1  0
  2  3  1  0
  2  4  1  0
  4  5  1  0
  5  6  1  0
  6  7  2  0
  7  8  1  0
  8  9  2  0
  9 10  1  0
 10 11  1  0
 11 12  1  0
 12 13  2  0
 12 14  1  0
 14 15  1  0
 15 16  2  0
 16 17  1  0
 17 18  2  0
 18 19  1  0
 19 20  1  0
 20 21  2  0
 21 22  1  0
 22 23  2  0
  9 24  1  0
 24 25  2  0
 25  6  1  0
 23 15  1  0
 22 18  1  0
  1 26  1  0
  1 27  1  0
  1 28  1  0
  3 29  1  0
  3 30  1  0
  3 31  1  0
  4 32  1  0
  4 33  1  0
  5 34  1  0
  5 35  1  0
  7 36  1  0
  8 37  1  0
 10 38  1  0
 10 39  1  0
 11 40  1  0
 14 41  1  0
 14 42  1  0
 16 43  1  0
 17 44  1  0
 20 45  1  0
 21 46  1  0
 23 47  1  0
 24 48  1  0
 25 49  1  0
M  END
>  <meeko>  (3) 
{"is_sidechain": [false], "free_energy": -7.756, "intermolecular_energy": -10.976, "internal_energy": -0.933}

$$$$
ligand_45_conformer_2_docked
     RDKit          3D

 49 51  0  0  0  0  0  0  0  0999 V2000
    5.1900   42.0690   44.9820 C   0  0  0  0  0  0  0  0  0  0  0  0
    5.1190   41.2480   46.2040 N   0  0  0  0  0  0  0  0  0  0  0  0
    3.7580   40.7080   46.3560 C   0  0  0  0  0  0  0  0  0  0  0  0
    5.5110   42.0480   47.3880 C   0  0  0  0  0  0  0  0  0  0  0  0
    5.6180   41.1680   48.6440 C   0  0  0  0  0  0  0  0  0  0  0  0
    4.8440   41.7590   49.7960 C   0  0  0  0  0  0  0  0  0  0  0  0
    3.5170   41.3640   50.0350 C   0  0  0  0  0  0  0  0  0  0  0  0
    2.7790   41.9560   51.0650 C   0  0  0  0  0  0  0  0  0  0  0  0
    3.3540   42.9600   51.8610 C   0  0  0  0  0  0  0  0  0  0  0  0
    2.5420   43.6260   52.9420 C   0  0  0  0  0  0  0  0  0  0  0  0
    3.3770   44.5320   53.7290 N   0  0  0  0  0  0  0  0  0  0  0  0
    3.2360   45.9600   53.6740 C   0  0  0  0  0  0  0  0  0  0  0  0
    2.3210   46.4850   52.9780 O   0  0  0  0  0  0  0  0  0  0  0  0
    4.1760   46.8420   54.4410 C   0  0  0  0  0  0  0  0  0  0  0  0
    5.5350   46.8480   53.7940 C   0  0  0  0  0  0  0  0  0  0  0  0
    5.6680   46.5820   52.4090 C   0  0  0  0  0  0  0  0  0  0  0  0
    6.9350   46.5500   51.8060 C   0  0  0  0  0  0  0  0  0  0  0  0
    8.0510   46.7780   52.6070 C   0  0  0  0  0  0  0  0  0  0  0  0
    9.6720   46.7890   52.1640 S   0  0  0  0  0  0  0  0  0  0  0  0
   10.2570   47.1190   53.7190 C   0  0  0  0  0  0  0  0  0  0  0  0
    9.1790   47.2230   54.5990 C   0  0  0  0  0  0  0  0  0  0  0  0
    7.9440   47.0310   53.9660 C   0  0  0  0  0  0  0  0  0  0  0  0
    6.6870   47.0690   54.5800 C   0  0  0  0  0  0  0  0  0  0  0  0
    4.6800   43.3560   51.6210 C   0  0  0  0  0  0  0  0  0  0  0  0
    5.4190   42.7610   50.5940 C   0  0  0  0  0  0  0  0  0  0  0  0
    5.2817   43.1299   45.2578 H   0  0  0  0  0  0  0  0  0  0  0  0
    6.0654   41.7675   44.3881 H   0  0  0  0  0  0  0  0  0  0  0  0
    4.2758   41.9223   44.3881 H   0  0  0  0  0  0  0  0  0  0  0  0
    3.5185   40.6130   47.4254 H   0  0  0  0  0  0  0  0  0  0  0  0
    3.0380   41.3886   45.8781 H   0  0  0  0  0  0  0  0  0  0  0  0
    3.7005   39.7189   45.8781 H   0  0  0  0  0  0  0  0  0  0  0  0
    6.4864   42.5188   47.1958 H   0  0  0  0  0  0  0  0  0  0  0  0
    4.7389   42.8117   47.5630 H   0  0  0  0  0  0  0  0  0  0  0  0
    5.2159   40.1696   48.4171 H   0  0  0  0  0  0  0  0  0  0  0  0
    6.6772   41.1048   48.9340 H   0  0  0  0  0  0  0  0  0  0  0  0
    3.0564   40.5855   49.4091 H   0  0  0  0  0  0  0  0  0  0  0  0
    1.7440   41.6339   51.2524 H   0  0  0  0  0  0  0  0  0  0  0  0
    1.7244   44.1982   52.4792 H   0  0  0  0  0  0  0  0  0  0  0  0
    2.1348   42.8509   53.6079 H   0  0  0  0  0  0  0  0  0  0  0  0
    4.1240   44.1150   54.3310 H   0  0  0  0  0  0  0  0  0  0  0  0
    3.7782   47.8674   54.4583 H   0  0  0  0  0  0  0  0  0  0  0  0
    4.2707   46.4561   55.4667 H   0  0  0  0  0  0  0  0  0  0  0  0
    4.7701   46.3989   51.8005 H   0  0  0  0  0  0  0  0  0  0  0  0
    7.0435   46.3502   50.7297 H   0  0  0  0  0  0  0  0  0  0  0  0
   11.3166   47.2330   53.9914 H   0  0  0  0  0  0  0  0  0  0  0  0
    9.2872   47.4330   55.6733 H   0  0  0  0  0  0  0  0  0  0  0  0
    6.5978   47.2679   55.6582 H   0  0  0  0  0  0  0  0  0  0  0  0
    5.1392   44.1378   52.2438 H   0  0  0  0  0  0  0  0  0  0  0  0
    6.4558   43.0794   50.4103 H   0  0  0  0  0  0  0  0  0  0  0  0
  1  2  1  0
  2  3  1  0
  2  4  1  0
  4  5  1  0
  5  6  1  0
  6  7  2  0
  7  8  1  0
  8  9  2  0
  9 10  1  0
 10 11  1  0
 11 12  1  0
 12 13  2  0
 12 14  1  0
 14 15  1  0
 15 16  2  0
 16 17  1  0
 17 18  2  0
 18 19  1  0
 19 20  1  0
 20 21  2  0
 21 22  1  0
 22 23  2  0
  9 24  1  0
 24 25  2  0
 25  6  1  0
 23 15  1  0
 22 18  1  0
  1 26  1  0
  1 27  1  0
  1 28  1  0
  3 29  1  0
  3 30  1  0
  3 31  1  0
  4 32  1  0
  4 33  1  0
  5 34  1  0
  5 35  1  0
  7 36  1  0
  8 37  1  0
 10 38  1  0
 10 39  1  0
 11 40  1  0
 14 41  1  0
 14 42  1  0
 16 43  1  0
 17 44  1  0
 20 45  1  0
 21 46  1  0
 23 47  1  0
 24 48  1  0
 25 49  1  0
M  END
>  <meeko>  (4) 
{"is_sidechain": [false], "free_energy": -7.749, "intermolecular_energy": -10.999, "internal_energy": -0.901}

$$$$
ligand_45_conformer_2_docked
     RDKit          3D

 49 51  0  0  0  0  0  0  0  0999 V2000
   -1.2280   48.4510   59.0460 C   0  0  0  0  0  0  0  0  0  0  0  0
   -0.6340   47.1680   58.6330 N   0  0  0  0  0  0  0  0  0  0  0  0
    0.8200   47.2030   58.8600 C   0  0  0  0  0  0  0  0  0  0  0  0
   -0.9450   46.8860   57.2110 C   0  0  0  0  0  0  0  0  0  0  0  0
   -1.3690   45.4230   57.0130 C   0  0  0  0  0  0  0  0  0  0  0  0
   -0.5780   44.7660   55.9100 C   0  0  0  0  0  0  0  0  0  0  0  0
    0.7640   45.1190   55.6930 C   0  0  0  0  0  0  0  0  0  0  0  0
    1.4810   44.5550   54.6320 C   0  0  0  0  0  0  0  0  0  0  0  0
    0.8600   43.6410   53.7650 C   0  0  0  0  0  0  0  0  0  0  0  0
    1.6220   43.0680   52.5980 C   0  0  0  0  0  0  0  0  0  0  0  0
    2.2660   44.1340   51.8310 N   0  0  0  0  0  0  0  0  0  0  0  0
    3.6770   44.1510   51.5620 C   0  0  0  0  0  0  0  0  0  0  0  0
    4.4090   43.1900   51.9330 O   0  0  0  0  0  0  0  0  0  0  0  0
    4.2940   45.3120   50.8410 C   0  0  0  0  0  0  0  0  0  0  0  0
    5.4380   45.8770   51.6380 C   0  0  0  0  0  0  0  0  0  0  0  0
    5.1880   46.6310   52.8120 C   0  0  0  0  0  0  0  0  0  0  0  0
    6.2480   47.1910   53.5410 C   0  0  0  0  0  0  0  0  0  0  0  0
    7.5460   46.9930   53.0740 C   0  0  0  0  0  0  0  0  0  0  0  0
    8.9890   47.5500   53.7290 S   0  0  0  0  0  0  0  0  0  0  0  0
    9.9770   46.8630   52.5370 C   0  0  0  0  0  0  0  0  0  0  0  0
    9.1760   46.1900   51.6140 C   0  0  0  0  0  0  0  0  0  0  0  0
    7.8120   46.2670   51.9230 C   0  0  0  0  0  0  0  0  0  0  0  0
    6.7650   45.7000   51.1890 C   0  0  0  0  0  0  0  0  0  0  0  0
   -0.4830   43.2890   53.9810 C   0  0  0  0  0  0  0  0  0  0  0  0
   -1.1970   43.8500   55.0440 C   0  0  0  0  0  0  0  0  0  0  0  0
   -1.2537   48.5065   60.1443 H   0  0  0  0  0  0  0  0  0  0  0  0
   -0.6219   49.2797   58.6511 H   0  0  0  0  0  0  0  0  0  0  0  0
   -2.2520   48.5250   58.6511 H   0  0  0  0  0  0  0  0  0  0  0  0
    1.0223   47.2079   59.9412 H   0  0  0  0  0  0  0  0  0  0  0  0
    1.2837   46.3158   58.4042 H   0  0  0  0  0  0  0  0  0  0  0  0
    1.2405   48.1115   58.4042 H   0  0  0  0  0  0  0  0  0  0  0  0
   -1.7645   47.5439   56.8860 H   0  0  0  0  0  0  0  0  0  0  0  0
   -0.0394   47.0693   56.6141 H   0  0  0  0  0  0  0  0  0  0  0  0
   -1.2022   44.8719   57.9503 H   0  0  0  0  0  0  0  0  0  0  0  0
   -2.4329   45.4053   56.7342 H   0  0  0  0  0  0  0  0  0  0  0  0
    1.2541   45.8428   56.3608 H   0  0  0  0  0  0  0  0  0  0  0  0
    2.5350   44.8285   54.4763 H   0  0  0  0  0  0  0  0  0  0  0  0
    2.3912   42.3768   52.9727 H   0  0  0  0  0  0  0  0  0  0  0  0
    0.9182   42.5344   51.9422 H   0  0  0  0  0  0  0  0  0  0  0  0
    1.6720   44.9260   51.4940 H   0  0  0  0  0  0  0  0  0  0  0  0
    4.6660   44.9745   49.8623 H   0  0  0  0  0  0  0  0  0  0  0  0
    3.5322   46.0941   50.7069 H   0  0  0  0  0  0  0  0  0  0  0  0
    4.1532   46.7785   53.1547 H   0  0  0  0  0  0  0  0  0  0  0  0
    6.0595   47.7708   54.4566 H   0  0  0  0  0  0  0  0  0  0  0  0
   11.0739   46.9358   52.4970 H   0  0  0  0  0  0  0  0  0  0  0  0
    9.5729   45.6563   50.7379 H   0  0  0  0  0  0  0  0  0  0  0  0
    6.9724   45.1243   50.2749 H   0  0  0  0  0  0  0  0  0  0  0  0
   -0.9748   42.5688   53.3107 H   0  0  0  0  0  0  0  0  0  0  0  0
   -2.2495   43.5724   55.2029 H   0  0  0  0  0  0  0  0  0  0  0  0
  1  2  1  0
  2  3  1  0
  2  4  1  0
  4  5  1  0
  5  6  1  0
  6  7  2  0
  7  8  1  0
  8  9  2  0
  9 10  1  0
 10 11  1  0
 11 12  1  0
 12 13  2  0
 12 14  1  0
 14 15  1  0
 15 16  2  0
 16 17  1  0
 17 18  2  0
 18 19  1  0
 19 20  1  0
 20 21  2  0
 21 22  1  0
 22 23  2  0
  9 24  1  0
 24 25  2  0
 25  6  1  0
 23 15  1  0
 22 18  1  0
  1 26  1  0
  1 27  1  0
  1 28  1  0
  3 29  1  0
  3 30  1  0
  3 31  1  0
  4 32  1  0
  4 33  1  0
  5 34  1  0
  5 35  1  0
  7 36  1  0
  8 37  1  0
 10 38  1  0
 10 39  1  0
 11 40  1  0
 14 41  1  0
 14 42  1  0
 16 43  1  0
 17 44  1  0
 20 45  1  0
 21 46  1  0
 23 47  1  0
 24 48  1  0
 25 49  1  0
M  END
>  <meeko>  (5) 
{"is_sidechain": [false], "free_energy": -7.634, "intermolecular_energy": -11.005, "internal_energy": -0.732}

$$$$
