ligand_54_conformer_3_docked
     RDKit          3D

 43 45  0  0  0  0  0  0  0  0999 V2000
    5.7280   44.3860   50.6320 C   0  0  0  0  0  0  0  0  0  0  0  0
    5.0770   45.9590   51.2750 S   0  0  0  0  0  0  0  0  0  0  0  0
    6.5420   46.2970   52.2690 C   0  0  0  0  0  0  0  0  0  0  0  0
    7.7910   46.2330   51.6360 C   0  0  0  0  0  0  0  0  0  0  0  0
    8.9640   46.5430   52.3370 C   0  0  0  0  0  0  0  0  0  0  0  0
   10.3000   46.4400   51.6610 C   0  0  0  0  0  0  0  0  0  0  0  0
    8.8850   46.8900   53.6910 C   0  0  0  0  0  0  0  0  0  0  0  0
    7.6460   46.9510   54.3320 C   0  0  0  0  0  0  0  0  0  0  0  0
    6.4620   46.6550   53.6360 C   0  0  0  0  0  0  0  0  0  0  0  0
    5.1700   46.7180   54.3630 C   0  0  0  0  0  0  0  0  0  0  0  0
    4.6190   47.8340   54.5660 O   0  0  0  0  0  0  0  0  0  0  0  0
    4.5540   45.5130   54.8440 N   0  0  0  0  0  0  0  0  0  0  0  0
    3.1960   45.4570   55.3080 C   0  0  0  0  0  0  0  0  0  0  0  0
    2.7360   46.0660   56.4140 N   0  0  0  0  0  0  0  0  0  0  0  0
    1.4270   45.8850   56.4510 N   0  0  0  0  0  0  0  0  0  0  0  0
    1.0200   45.1800   55.4030 N   0  0  0  0  0  0  0  0  0  0  0  0
    2.1090   44.9000   54.6560 C   0  0  0  0  0  0  0  0  0  0  0  0
    2.1020   44.1050   53.4050 C   0  0  0  0  0  0  0  0  0  0  0  0
    3.1820   43.5880   53.0090 O   0  0  0  0  0  0  0  0  0  0  0  0
    0.9070   43.8950   52.6250 N   0  0  0  0  0  0  0  0  0  0  0  0
   -0.4350   44.3020   53.0100 C   0  0  0  0  0  0  0  0  0  0  0  0
   -1.3630   43.7500   51.9340 C   0  0  0  0  0  0  0  0  0  0  0  0
   -0.4670   43.3850   50.7550 C   0  0  0  0  0  0  0  0  0  0  0  0
    0.9360   43.2390   51.3280 C   0  0  0  0  0  0  0  0  0  0  0  0
    5.9993   43.7305   51.4726 H   0  0  0  0  0  0  0  0  0  0  0  0
    4.9592   43.8949   50.0173 H   0  0  0  0  0  0  0  0  0  0  0  0
    6.6190   44.5818   50.0173 H   0  0  0  0  0  0  0  0  0  0  0  0
    7.8509   45.9365   50.5784 H   0  0  0  0  0  0  0  0  0  0  0  0
   11.0921   46.3789   52.4218 H   0  0  0  0  0  0  0  0  0  0  0  0
   10.3245   45.5373   51.0329 H   0  0  0  0  0  0  0  0  0  0  0  0
   10.4626   47.3283   51.0329 H   0  0  0  0  0  0  0  0  0  0  0  0
    9.8035   47.1157   54.2526 H   0  0  0  0  0  0  0  0  0  0  0  0
    7.5964   47.2340   55.3938 H   0  0  0  0  0  0  0  0  0  0  0  0
    5.1270   44.6410   54.8690 H   0  0  0  0  0  0  0  0  0  0  0  0
    3.2760   46.6280   57.1090 H   0  0  0  0  0  0  0  0  0  0  0  0
   -0.6954   43.8815   53.9925 H   0  0  0  0  0  0  0  0  0  0  0  0
   -0.5175   45.3958   53.0926 H   0  0  0  0  0  0  0  0  0  0  0  0
   -1.8901   42.8583   52.3042 H   0  0  0  0  0  0  0  0  0  0  0  0
   -2.1292   44.4849   51.6462 H   0  0  0  0  0  0  0  0  0  0  0  0
   -0.7963   42.4379   50.3028 H   0  0  0  0  0  0  0  0  0  0  0  0
   -0.5040   44.1513   49.9667 H   0  0  0  0  0  0  0  0  0  0  0  0
    1.1937   42.1758   51.4427 H   0  0  0  0  0  0  0  0  0  0  0  0
    1.6914   43.6870   50.6657 H   0  0  0  0  0  0  0  0  0  0  0  0
  1  2  1  0
  2  3  1  0
  3  4  2  0
  4  5  1  0
  5  6  1  0
  5  7  2  0
  7  8  1  0
  8  9  2  0
  9 10  1  0
 10 11  2  0
 10 12  1  0
 12 13  1  0
 13 14  1  0
 14 15  1  0
 15 16  2  0
 16 17  1  0
 17 18  1  0
 18 19  2  0
 18 20  1  0
 20 21  1  0
 21 22  1  0
 22 23  1  0
 23 24  1  0
  9  3  1  0
 17 13  2  0
 24 20  1  0
  1 25  1  0
  1 26  1  0
  1 27  1  0
  4 28  1  0
  6 29  1  0
  6 30  1  0
  6 31  1  0
  7 32  1  0
  8 33  1  0
 12 34  1  0
 14 35  1  0
 21 36  1  0
 21 37  1  0
 22 38  1  0
 22 39  1  0
 23 40  1  0
 23 41  1  0
 24 42  1  0
 24 43  1  0
M  END
>  <meeko>  (1) 
{"is_sidechain": [false], "free_energy": -8.664, "intermolecular_energy": -10.69, "internal_energy": -0.669}

$$$$
ligand_54_conformer_3_docked
     RDKit          3D

 43 45  0  0  0  0  0  0  0  0999 V2000
    4.7700   46.2370   54.9520 C   0  0  0  0  0  0  0  0  0  0  0  0
    4.5590   47.5670   53.7280 S   0  0  0  0  0  0  0  0  0  0  0  0
    5.6890   46.8170   52.5410 C   0  0  0  0  0  0  0  0  0  0  0  0
    7.0580   47.0800   52.6830 C   0  0  0  0  0  0  0  0  0  0  0  0
    7.9940   46.4800   51.8310 C   0  0  0  0  0  0  0  0  0  0  0  0
    9.4550   46.7930   51.9700 C   0  0  0  0  0  0  0  0  0  0  0  0
    7.5500   45.6340   50.8080 C   0  0  0  0  0  0  0  0  0  0  0  0
    6.1870   45.3690   50.6540 C   0  0  0  0  0  0  0  0  0  0  0  0
    5.2400   45.9550   51.5110 C   0  0  0  0  0  0  0  0  0  0  0  0
    3.8030   45.6570   51.2990 C   0  0  0  0  0  0  0  0  0  0  0  0
    3.1380   46.3340   50.4690 O   0  0  0  0  0  0  0  0  0  0  0  0
    3.1670   44.6070   52.0460 N   0  0  0  0  0  0  0  0  0  0  0  0
    1.8730   44.0810   51.7130 C   0  0  0  0  0  0  0  0  0  0  0  0
    1.5250   43.6010   50.5080 N   0  0  0  0  0  0  0  0  0  0  0  0
    0.3040   43.1040   50.6150 N   0  0  0  0  0  0  0  0  0  0  0  0
   -0.1520   43.2440   51.8530 N   0  0  0  0  0  0  0  0  0  0  0  0
    0.8140   43.8500   52.5750 C   0  0  0  0  0  0  0  0  0  0  0  0
    0.7040   44.2190   54.0070 C   0  0  0  0  0  0  0  0  0  0  0  0
    1.7480   44.2210   54.7150 O   0  0  0  0  0  0  0  0  0  0  0  0
   -0.5500   44.5810   54.6210 N   0  0  0  0  0  0  0  0  0  0  0  0
   -1.8130   44.7600   53.9210 C   0  0  0  0  0  0  0  0  0  0  0  0
   -2.8020   45.2610   54.9670 C   0  0  0  0  0  0  0  0  0  0  0  0
   -2.1640   44.9660   56.3210 C   0  0  0  0  0  0  0  0  0  0  0  0
   -0.6750   44.8000   56.0530 C   0  0  0  0  0  0  0  0  0  0  0  0
    4.7032   46.6580   55.9661 H   0  0  0  0  0  0  0  0  0  0  0  0
    3.9801   45.4838   54.8149 H   0  0  0  0  0  0  0  0  0  0  0  0
    5.7542   45.7653   54.8149 H   0  0  0  0  0  0  0  0  0  0  0  0
    7.4014   47.7651   53.4721 H   0  0  0  0  0  0  0  0  0  0  0  0
    9.7181   46.8494   53.0366 H   0  0  0  0  0  0  0  0  0  0  0  0
   10.0471   46.0013   51.4876 H   0  0  0  0  0  0  0  0  0  0  0  0
    9.6708   47.7578   51.4876 H   0  0  0  0  0  0  0  0  0  0  0  0
    8.2777   45.1757   50.1221 H   0  0  0  0  0  0  0  0  0  0  0  0
    5.8513   44.6940   49.8529 H   0  0  0  0  0  0  0  0  0  0  0  0
    3.6650   44.2210   52.8770 H   0  0  0  0  0  0  0  0  0  0  0  0
    2.1040   43.5640   49.6400 H   0  0  0  0  0  0  0  0  0  0  0  0
   -1.7020   45.4993   53.1141 H   0  0  0  0  0  0  0  0  0  0  0  0
   -2.1548   43.8227   53.4578 H   0  0  0  0  0  0  0  0  0  0  0  0
   -2.9681   46.3420   54.8497 H   0  0  0  0  0  0  0  0  0  0  0  0
   -3.7806   44.7689   54.8659 H   0  0  0  0  0  0  0  0  0  0  0  0
   -2.3370   45.8012   57.0156 H   0  0  0  0  0  0  0  0  0  0  0  0
   -2.5943   44.0650   56.7826 H   0  0  0  0  0  0  0  0  0  0  0  0
   -0.1292   45.7075   56.3504 H   0  0  0  0  0  0  0  0  0  0  0  0
   -0.2519   43.9632   56.6281 H   0  0  0  0  0  0  0  0  0  0  0  0
  1  2  1  0
  2  3  1  0
  3  4  2  0
  4  5  1  0
  5  6  1  0
  5  7  2  0
  7  8  1  0
  8  9  2  0
  9 10  1  0
 10 11  2  0
 10 12  1  0
 12 13  1  0
 13 14  1  0
 14 15  1  0
 15 16  2  0
 16 17  1  0
 17 18  1  0
 18 19  2  0
 18 20  1  0
 20 21  1  0
 21 22  1  0
 22 23  1  0
 23 24  1  0
  9  3  1  0
 17 13  2  0
 24 20  1  0
  1 25  1  0
  1 26  1  0
  1 27  1  0
  4 28  1  0
  6 29  1  0
  6 30  1  0
  6 31  1  0
  7 32  1  0
  8 33  1  0
 12 34  1  0
 14 35  1  0
 21 36  1  0
 21 37  1  0
 22 38  1  0
 22 39  1  0
 23 40  1  0
 23 41  1  0
 24 42  1  0
 24 43  1  0
M  END
>  <meeko>  (2) 
{"is_sidechain": [false], "free_energy": -8.182, "intermolecular_energy": -9.97, "internal_energy": -0.794}

$$$$
ligand_54_conformer_3_docked
     RDKit          3D

 43 45  0  0  0  0  0  0  0  0999 V2000
    4.1770   41.2770   50.3930 C   0  0  0  0  0  0  0  0  0  0  0  0
    3.3720   42.5980   51.3530 S   0  0  0  0  0  0  0  0  0  0  0  0
    4.7670   43.7270   51.1970 C   0  0  0  0  0  0  0  0  0  0  0  0
    5.8010   43.3730   50.3190 C   0  0  0  0  0  0  0  0  0  0  0  0
    6.8850   44.2340   50.1060 C   0  0  0  0  0  0  0  0  0  0  0  0
    8.0030   43.8330   49.1890 C   0  0  0  0  0  0  0  0  0  0  0  0
    6.9490   45.4450   50.8040 C   0  0  0  0  0  0  0  0  0  0  0  0
    5.9270   45.8050   51.6860 C   0  0  0  0  0  0  0  0  0  0  0  0
    4.8280   44.9560   51.8980 C   0  0  0  0  0  0  0  0  0  0  0  0
    3.7750   45.3720   52.8550 C   0  0  0  0  0  0  0  0  0  0  0  0
    2.9610   46.2810   52.5360 O   0  0  0  0  0  0  0  0  0  0  0  0
    3.6900   44.7520   54.1480 N   0  0  0  0  0  0  0  0  0  0  0  0
    2.5550   44.8990   55.0150 C   0  0  0  0  0  0  0  0  0  0  0  0
    2.5130   45.6920   56.0990 N   0  0  0  0  0  0  0  0  0  0  0  0
    1.2790   45.6560   56.5710 N   0  0  0  0  0  0  0  0  0  0  0  0
    0.5160   44.8650   55.8280 N   0  0  0  0  0  0  0  0  0  0  0  0
    1.2850   44.3770   54.8330 C   0  0  0  0  0  0  0  0  0  0  0  0
    0.8290   43.4280   53.7890 C   0  0  0  0  0  0  0  0  0  0  0  0
    1.2350   42.2350   53.8330 O   0  0  0  0  0  0  0  0  0  0  0  0
   -0.0670   43.8160   52.7260 N   0  0  0  0  0  0  0  0  0  0  0  0
   -0.7310   45.1050   52.6090 C   0  0  0  0  0  0  0  0  0  0  0  0
   -1.6610   44.9870   51.4080 C   0  0  0  0  0  0  0  0  0  0  0  0
   -1.1950   43.7570   50.6370 C   0  0  0  0  0  0  0  0  0  0  0  0
   -0.3940   42.9220   51.6270 C   0  0  0  0  0  0  0  0  0  0  0  0
    4.6237   40.5440   51.0809 H   0  0  0  0  0  0  0  0  0  0  0  0
    3.4299   40.7771   49.7591 H   0  0  0  0  0  0  0  0  0  0  0  0
    4.9638   41.7118   49.7591 H   0  0  0  0  0  0  0  0  0  0  0  0
    5.7605   42.4085   49.7916 H   0  0  0  0  0  0  0  0  0  0  0  0
    8.8728   43.5210   49.7858 H   0  0  0  0  0  0  0  0  0  0  0  0
    7.6747   42.9966   48.5545 H   0  0  0  0  0  0  0  0  0  0  0  0
    8.2811   44.6874   48.5545 H   0  0  0  0  0  0  0  0  0  0  0  0
    7.8078   46.1166   50.6577 H   0  0  0  0  0  0  0  0  0  0  0  0
    5.9836   46.7646   52.2208 H   0  0  0  0  0  0  0  0  0  0  0  0
    4.4980   44.1790   54.4750 H   0  0  0  0  0  0  0  0  0  0  0  0
    3.2800   46.2820   56.4920 H   0  0  0  0  0  0  0  0  0  0  0  0
   -1.3079   45.3225   53.5200 H   0  0  0  0  0  0  0  0  0  0  0  0
   -0.0066   45.9227   52.4805 H   0  0  0  0  0  0  0  0  0  0  0  0
   -2.7014   44.8582   51.7411 H   0  0  0  0  0  0  0  0  0  0  0  0
   -1.6292   45.8913   50.7826 H   0  0  0  0  0  0  0  0  0  0  0  0
   -2.0600   43.1867   50.2675 H   0  0  0  0  0  0  0  0  0  0  0  0
   -0.5903   44.0348   49.7611 H   0  0  0  0  0  0  0  0  0  0  0  0
   -0.9955   42.0749   51.9884 H   0  0  0  0  0  0  0  0  0  0  0  0
    0.5110   42.5024   51.1635 H   0  0  0  0  0  0  0  0  0  0  0  0
  1  2  1  0
  2  3  1  0
  3  4  2  0
  4  5  1  0
  5  6  1  0
  5  7  2  0
  7  8  1  0
  8  9  2  0
  9 10  1  0
 10 11  2  0
 10 12  1  0
 12 13  1  0
 13 14  1  0
 14 15  1  0
 15 16  2  0
 16 17  1  0
 17 18  1  0
 18 19  2  0
 18 20  1  0
 20 21  1  0
 21 22  1  0
 22 23  1  0
 23 24  1  0
  9  3  1  0
 17 13  2  0
 24 20  1  0
  1 25  1  0
  1 26  1  0
  1 27  1  0
  4 28  1  0
  6 29  1  0
  6 30  1  0
  6 31  1  0
  7 32  1  0
  8 33  1  0
 12 34  1  0
 14 35  1  0
 21 36  1  0
 21 37  1  0
 22 38  1  0
 22 39  1  0
 23 40  1  0
 23 41  1  0
 24 42  1  0
 24 43  1  0
M  END
>  <meeko>  (3) 
{"is_sidechain": [false], "free_energy": -8.156, "intermolecular_energy": -10.059, "internal_energy": -0.673}

$$$$
ligand_54_conformer_3_docked
     RDKit          3D

 43 45  0  0  0  0  0  0  0  0999 V2000
    8.3170   47.9370   51.9270 C   0  0  0  0  0  0  0  0  0  0  0  0
    6.9020   47.3430   52.9050 S   0  0  0  0  0  0  0  0  0  0  0  0
    6.5610   45.9640   51.7960 C   0  0  0  0  0  0  0  0  0  0  0  0
    7.5570   45.6000   50.8790 C   0  0  0  0  0  0  0  0  0  0  0  0
    7.3800   44.4990   50.0300 C   0  0  0  0  0  0  0  0  0  0  0  0
    8.4370   44.1370   49.0290 C   0  0  0  0  0  0  0  0  0  0  0  0
    6.1820   43.7780   50.0800 C   0  0  0  0  0  0  0  0  0  0  0  0
    5.1810   44.1360   50.9860 C   0  0  0  0  0  0  0  0  0  0  0  0
    5.3520   45.2290   51.8510 C   0  0  0  0  0  0  0  0  0  0  0  0
    4.2560   45.5810   52.7860 C   0  0  0  0  0  0  0  0  0  0  0  0
    3.5160   46.5730   52.5400 O   0  0  0  0  0  0  0  0  0  0  0  0
    4.0430   44.8030   53.9740 N   0  0  0  0  0  0  0  0  0  0  0  0
    2.8580   44.9060   54.7780 C   0  0  0  0  0  0  0  0  0  0  0  0
    2.7630   45.6020   55.9230 N   0  0  0  0  0  0  0  0  0  0  0  0
    1.5000   45.5580   56.3110 N   0  0  0  0  0  0  0  0  0  0  0  0
    0.7690   44.8560   55.4540 N   0  0  0  0  0  0  0  0  0  0  0  0
    1.5920   44.4360   54.4700 C   0  0  0  0  0  0  0  0  0  0  0  0
    1.1840   43.5960   53.3180 C   0  0  0  0  0  0  0  0  0  0  0  0
    1.8380   42.5460   53.0710 O   0  0  0  0  0  0  0  0  0  0  0  0
    0.0640   43.9290   52.4720 N   0  0  0  0  0  0  0  0  0  0  0  0
   -0.8710   45.0200   52.6990 C   0  0  0  0  0  0  0  0  0  0  0  0
   -1.9390   44.8850   51.6200 C   0  0  0  0  0  0  0  0  0  0  0  0
   -1.3530   43.9520   50.5660 C   0  0  0  0  0  0  0  0  0  0  0  0
   -0.2400   43.1820   51.2630 C   0  0  0  0  0  0  0  0  0  0  0  0
    9.1160   48.2724   52.6045 H   0  0  0  0  0  0  0  0  0  0  0  0
    8.6928   47.1207   51.2926 H   0  0  0  0  0  0  0  0  0  0  0  0
    7.9975   48.7770   51.2926 H   0  0  0  0  0  0  0  0  0  0  0  0
    8.4872   46.1847   50.8253 H   0  0  0  0  0  0  0  0  0  0  0  0
    9.3501   43.8243   49.5568 H   0  0  0  0  0  0  0  0  0  0  0  0
    8.0770   43.3109   48.3981 H   0  0  0  0  0  0  0  0  0  0  0  0
    8.6590   45.0103   48.3981 H   0  0  0  0  0  0  0  0  0  0  0  0
    6.0277   42.9252   49.4026 H   0  0  0  0  0  0  0  0  0  0  0  0
    4.2477   43.5549   51.0224 H   0  0  0  0  0  0  0  0  0  0  0  0
    4.7950   44.1430   54.2730 H   0  0  0  0  0  0  0  0  0  0  0  0
    3.5150   46.1340   56.4150 H   0  0  0  0  0  0  0  0  0  0  0  0
   -1.3233   44.9348   53.6981 H   0  0  0  0  0  0  0  0  0  0  0  0
   -0.3700   45.9981   52.6517 H   0  0  0  0  0  0  0  0  0  0  0  0
   -2.8584   44.4544   52.0435 H   0  0  0  0  0  0  0  0  0  0  0  0
   -2.2053   45.8623   51.1910 H   0  0  0  0  0  0  0  0  0  0  0  0
   -2.1239   43.2598   50.1966 H   0  0  0  0  0  0  0  0  0  0  0  0
   -0.9748   44.5108   49.6973 H   0  0  0  0  0  0  0  0  0  0  0  0
   -0.5776   42.1660   51.5156 H   0  0  0  0  0  0  0  0  0  0  0  0
    0.6453   43.0793   50.6182 H   0  0  0  0  0  0  0  0  0  0  0  0
  1  2  1  0
  2  3  1  0
  3  4  2  0
  4  5  1  0
  5  6  1  0
  5  7  2  0
  7  8  1  0
  8  9  2  0
  9 10  1  0
 10 11  2  0
 10 12  1  0
 12 13  1  0
 13 14  1  0
 14 15  1  0
 15 16  2  0
 16 17  1  0
 17 18  1  0
 18 19  2  0
 18 20  1  0
 20 21  1  0
 21 22  1  0
 22 23  1  0
 23 24  1  0
  9  3  1  0
 17 13  2  0
 24 20  1  0
  1 25  1  0
  1 26  1  0
  1 27  1  0
  4 28  1  0
  6 29  1  0
  6 30  1  0
  6 31  1  0
  7 32  1  0
  8 33  1  0
 12 34  1  0
 14 35  1  0
 21 36  1  0
 21 37  1  0
 22 38  1  0
 22 39  1  0
 23 40  1  0
 23 41  1  0
 24 42  1  0
 24 43  1  0
M  END
>  <meeko>  (4) 
{"is_sidechain": [false], "free_energy": -8.136, "intermolecular_energy": -10.02, "internal_energy": -0.687}

$$$$
ligand_54_conformer_3_docked
     RDKit          3D

 43 45  0  0  0  0  0  0  0  0999 V2000
    4.4840   47.5230   54.5050 C   0  0  0  0  0  0  0  0  0  0  0  0
    4.9810   45.7730   54.5540 S   0  0  0  0  0  0  0  0  0  0  0  0
    6.5130   46.0590   53.6500 C   0  0  0  0  0  0  0  0  0  0  0  0
    7.5600   46.7060   54.3220 C   0  0  0  0  0  0  0  0  0  0  0  0
    8.7970   46.9050   53.6960 C   0  0  0  0  0  0  0  0  0  0  0  0
    9.9010   47.6270   54.4120 C   0  0  0  0  0  0  0  0  0  0  0  0
    8.9760   46.4800   52.3740 C   0  0  0  0  0  0  0  0  0  0  0  0
    7.9380   45.8400   51.6930 C   0  0  0  0  0  0  0  0  0  0  0  0
    6.6970   45.6230   52.3150 C   0  0  0  0  0  0  0  0  0  0  0  0
    5.6190   44.9530   51.5470 C   0  0  0  0  0  0  0  0  0  0  0  0
    5.2030   45.4650   50.4730 O   0  0  0  0  0  0  0  0  0  0  0  0
    5.0420   43.7300   52.0320 N   0  0  0  0  0  0  0  0  0  0  0  0
    4.2020   42.8870   51.2290 C   0  0  0  0  0  0  0  0  0  0  0  0
    4.5970   41.7490   50.6340 N   0  0  0  0  0  0  0  0  0  0  0  0
    3.5290   41.1950   50.0860 N   0  0  0  0  0  0  0  0  0  0  0  0
    2.4510   41.9350   50.3080 N   0  0  0  0  0  0  0  0  0  0  0  0
    2.8360   43.0060   51.0330 C   0  0  0  0  0  0  0  0  0  0  0  0
    1.9410   44.1020   51.4770 C   0  0  0  0  0  0  0  0  0  0  0  0
    1.9820   45.2040   50.8650 O   0  0  0  0  0  0  0  0  0  0  0  0
    1.0210   43.9550   52.5780 N   0  0  0  0  0  0  0  0  0  0  0  0
    0.7530   42.7190   53.2950 C   0  0  0  0  0  0  0  0  0  0  0  0
   -0.3730   43.0390   54.2720 C   0  0  0  0  0  0  0  0  0  0  0  0
   -0.4340   44.5610   54.3550 C   0  0  0  0  0  0  0  0  0  0  0  0
    0.2540   45.0750   53.0980 C   0  0  0  0  0  0  0  0  0  0  0  0
    4.3762   47.9024   55.5318 H   0  0  0  0  0  0  0  0  0  0  0  0
    5.2517   48.1075   53.9768 H   0  0  0  0  0  0  0  0  0  0  0  0
    3.5237   47.6168   53.9768 H   0  0  0  0  0  0  0  0  0  0  0  0
    7.4081   47.0611   55.3520 H   0  0  0  0  0  0  0  0  0  0  0  0
    9.7566   47.5326   55.4984 H   0  0  0  0  0  0  0  0  0  0  0  0
   10.8693   47.1871   54.1312 H   0  0  0  0  0  0  0  0  0  0  0  0
    9.8861   48.6904   54.1312 H   0  0  0  0  0  0  0  0  0  0  0  0
    9.9384   46.6509   51.8695 H   0  0  0  0  0  0  0  0  0  0  0  0
    8.0939   45.5020   50.6579 H   0  0  0  0  0  0  0  0  0  0  0  0
    5.2330   43.4510   53.0190 H   0  0  0  0  0  0  0  0  0  0  0  0
    5.5520   41.3260   50.6290 H   0  0  0  0  0  0  0  0  0  0  0  0
    0.4396   41.9306   52.5948 H   0  0  0  0  0  0  0  0  0  0  0  0
    1.6490   42.3523   53.8172 H   0  0  0  0  0  0  0  0  0  0  0  0
   -1.3274   42.6374   53.9008 H   0  0  0  0  0  0  0  0  0  0  0  0
   -0.1923   42.5875   55.2587 H   0  0  0  0  0  0  0  0  0  0  0  0
   -1.4797   44.9010   54.3851 H   0  0  0  0  0  0  0  0  0  0  0  0
    0.0559   44.9359   55.2657 H   0  0  0  0  0  0  0  0  0  0  0  0
   -0.4927   45.4030   52.3599 H   0  0  0  0  0  0  0  0  0  0  0  0
    0.8981   45.9399   53.3148 H   0  0  0  0  0  0  0  0  0  0  0  0
  1  2  1  0
  2  3  1  0
  3  4  2  0
  4  5  1  0
  5  6  1  0
  5  7  2  0
  7  8  1  0
  8  9  2  0
  9 10  1  0
 10 11  2  0
 10 12  1  0
 12 13  1  0
 13 14  1  0
 14 15  1  0
 15 16  2  0
 16 17  1  0
 17 18  1  0
 18 19  2  0
 18 20  1  0
 20 21  1  0
 21 22  1  0
 22 23  1  0
 23 24  1  0
  9  3  1  0
 17 13  2  0
 24 20  1  0
  1 25  1  0
  1 26  1  0
  1 27  1  0
  4 28  1  0
  6 29  1  0
  6 30  1  0
  6 31  1  0
  7 32  1  0
  8 33  1  0
 12 34  1  0
 14 35  1  0
 21 36  1  0
 21 37  1  0
 22 38  1  0
 22 39  1  0
 23 40  1  0
 23 41  1  0
 24 42  1  0
 24 43  1  0
M  END
>  <meeko>  (5) 
{"is_sidechain": [false], "free_energy": -8.128, "intermolecular_energy": -10.135, "internal_energy": -0.562}

$$$$
