ligand_65_conformer_3_docked
     RDKit          3D

 34 37  0  0  0  0  0  0  0  0999 V2000
    4.3360   45.2160   55.3260 C   0  0  0  0  0  0  0  0  0  0  0  0
    3.3950   46.2730   54.7280 C   0  0  1  0  0  0  0  0  0  0  0  0
    4.1250   47.1710   53.8260 N   0  0  0  0  0  0  0  0  0  0  0  0
    5.4540   46.9240   53.3350 C   0  0  0  0  0  0  0  0  0  0  0  0
    6.5590   47.2920   54.0540 N   0  0  0  0  0  0  0  0  0  0  0  0
    7.8290   47.0540   53.6030 C   0  0  0  0  0  0  0  0  0  0  0  0
    8.9390   47.4390   54.3610 C   0  0  0  0  0  0  0  0  0  0  0  0
   10.2320   47.1860   53.8830 C   0  0  0  0  0  0  0  0  0  0  0  0
   10.4170   46.5470   52.6500 C   0  0  0  0  0  0  0  0  0  0  0  0
    9.3130   46.1570   51.8830 C   0  0  0  0  0  0  0  0  0  0  0  0
    8.0190   46.4080   52.3570 C   0  0  0  0  0  0  0  0  0  0  0  0
    6.9040   46.0570   51.6700 N   0  0  0  0  0  0  0  0  0  0  0  0
    6.7920   45.4510   50.5040 N   0  0  0  0  0  0  0  0  0  0  0  0
    5.4950   45.3190   50.2420 N   0  0  0  0  0  0  0  0  0  0  0  0
    4.7620   45.8330   51.2290 N   0  0  0  0  0  0  0  0  0  0  0  0
    5.6680   46.2890   52.1110 C   0  0  0  0  0  0  0  0  0  0  0  0
    2.1560   45.7210   54.0520 C   0  0  0  0  0  0  0  0  0  0  0  0
    1.6840   46.1820   52.8060 C   0  0  0  0  0  0  0  0  0  0  0  0
    0.5430   45.6560   52.2860 N   0  0  0  0  0  0  0  0  0  0  0  0
   -0.1570   44.6970   52.9430 C   0  0  0  0  0  0  0  0  0  0  0  0
    0.3000   44.2410   54.1780 C   0  0  0  0  0  0  0  0  0  0  0  0
    1.4380   44.7640   54.7030 N   0  0  0  0  0  0  0  0  0  0  0  0
    4.2922   45.2652   56.4240 H   0  0  0  0  0  0  0  0  0  0  0  0
    4.0240   44.2158   54.9911 H   0  0  0  0  0  0  0  0  0  0  0  0
    5.3656   45.4102   54.9911 H   0  0  0  0  0  0  0  0  0  0  0  0
    3.0185   46.8396   55.5924 H   0  0  0  0  0  0  0  0  0  0  0  0
    3.6320   48.0370   53.5110 H   0  0  0  0  0  0  0  0  0  0  0  0
    8.7978   47.9394   55.3304 H   0  0  0  0  0  0  0  0  0  0  0  0
   11.1053   47.4905   54.4785 H   0  0  0  0  0  0  0  0  0  0  0  0
   11.4352   46.3508   52.2828 H   0  0  0  0  0  0  0  0  0  0  0  0
    9.4606   45.6568   50.9145 H   0  0  0  0  0  0  0  0  0  0  0  0
    2.2346   46.9613   52.2587 H   0  0  0  0  0  0  0  0  0  0  0  0
   -1.0771   44.2832   52.5046 H   0  0  0  0  0  0  0  0  0  0  0  0
   -0.2563   43.4641   54.7229 H   0  0  0  0  0  0  0  0  0  0  0  0
  1  2  1  0
  2  3  1  0
  3  4  1  0
  4  5  2  0
  5  6  1  0
  6  7  2  0
  7  8  1  0
  8  9  2  0
  9 10  1  0
 10 11  2  0
 11 12  1  0
 12 13  1  0
 13 14  2  0
 14 15  1  0
 15 16  2  0
  2 17  1  0
 17 18  2  0
 18 19  1  0
 19 20  2  0
 20 21  1  0
 21 22  2  0
 16  4  1  0
 22 17  1  0
 11  6  1  0
 16 12  1  0
  1 23  1  0
  1 24  1  0
  1 25  1  0
  2 26  1  1
  3 27  1  0
  7 28  1  0
  8 29  1  0
  9 30  1  0
 10 31  1  0
 18 32  1  0
 20 33  1  0
 21 34  1  0
M  END
>  <meeko>  (1) 
{"is_sidechain": [false], "free_energy": -8.876, "intermolecular_energy": -10.433, "internal_energy": -0.377}

$$$$
ligand_65_conformer_3_docked
     RDKit          3D

 34 37  0  0  0  0  0  0  0  0999 V2000
    4.5400   45.0150   54.9380 C   0  0  0  0  0  0  0  0  0  0  0  0
    3.6150   46.1150   54.3980 C   0  0  1  0  0  0  0  0  0  0  0  0
    4.2800   46.8860   53.3410 N   0  0  0  0  0  0  0  0  0  0  0  0
    5.3060   46.3630   52.4780 C   0  0  0  0  0  0  0  0  0  0  0  0
    5.1040   45.2290   51.7390 N   0  0  0  0  0  0  0  0  0  0  0  0
    6.0670   44.7260   50.9070 C   0  0  0  0  0  0  0  0  0  0  0  0
    5.8320   43.5670   50.1610 C   0  0  0  0  0  0  0  0  0  0  0  0
    6.8300   43.0680   49.3140 C   0  0  0  0  0  0  0  0  0  0  0  0
    8.0630   43.7260   49.2090 C   0  0  0  0  0  0  0  0  0  0  0  0
    8.3090   44.8870   49.9510 C   0  0  0  0  0  0  0  0  0  0  0  0
    7.3140   45.3890   50.7990 C   0  0  0  0  0  0  0  0  0  0  0  0
    7.4810   46.5100   51.5450 N   0  0  0  0  0  0  0  0  0  0  0  0
    8.5250   47.3110   51.6340 N   0  0  0  0  0  0  0  0  0  0  0  0
    8.2160   48.2790   52.4920 N   0  0  0  0  0  0  0  0  0  0  0  0
    6.9810   48.1130   52.9630 N   0  0  0  0  0  0  0  0  0  0  0  0
    6.5420   46.9980   52.3540 C   0  0  0  0  0  0  0  0  0  0  0  0
    2.2510   45.6400   53.9400 C   0  0  0  0  0  0  0  0  0  0  0  0
    1.6530   46.0520   52.7310 C   0  0  0  0  0  0  0  0  0  0  0  0
    0.4100   45.6040   52.4120 N   0  0  0  0  0  0  0  0  0  0  0  0
   -0.2740   44.7700   53.2350 C   0  0  0  0  0  0  0  0  0  0  0  0
    0.3070   44.3650   54.4350 C   0  0  0  0  0  0  0  0  0  0  0  0
    1.5480   44.8100   54.7590 N   0  0  0  0  0  0  0  0  0  0  0  0
    4.5261   45.0315   56.0378 H   0  0  0  0  0  0  0  0  0  0  0  0
    4.1909   44.0347   54.5815 H   0  0  0  0  0  0  0  0  0  0  0  0
    5.5657   45.1908   54.5815 H   0  0  0  0  0  0  0  0  0  0  0  0
    3.4148   46.7652   55.2623 H   0  0  0  0  0  0  0  0  0  0  0  0
    3.9700   47.8740   53.2020 H   0  0  0  0  0  0  0  0  0  0  0  0
    4.8653   43.0480   50.2391 H   0  0  0  0  0  0  0  0  0  0  0  0
    6.6450   42.1553   48.7285 H   0  0  0  0  0  0  0  0  0  0  0  0
    8.8408   43.3283   48.5405 H   0  0  0  0  0  0  0  0  0  0  0  0
    9.2776   45.4018   49.8686 H   0  0  0  0  0  0  0  0  0  0  0  0
    2.1886   46.7309   52.0512 H   0  0  0  0  0  0  0  0  0  0  0  0
   -1.2781   44.4168   52.9575 H   0  0  0  0  0  0  0  0  0  0  0  0
   -0.2352   43.6905   55.1140 H   0  0  0  0  0  0  0  0  0  0  0  0
  1  2  1  0
  2  3  1  0
  3  4  1  0
  4  5  2  0
  5  6  1  0
  6  7  2  0
  7  8  1  0
  8  9  2  0
  9 10  1  0
 10 11  2  0
 11 12  1  0
 12 13  1  0
 13 14  2  0
 14 15  1  0
 15 16  2  0
  2 17  1  0
 17 18  2  0
 18 19  1  0
 19 20  2  0
 20 21  1  0
 21 22  2  0
 16  4  1  0
 22 17  1  0
 11  6  1  0
 16 12  1  0
  1 23  1  0
  1 24  1  0
  1 25  1  0
  2 26  1  1
  3 27  1  0
  7 28  1  0
  8 29  1  0
  9 30  1  0
 10 31  1  0
 18 32  1  0
 20 33  1  0
 21 34  1  0
M  END
>  <meeko>  (2) 
{"is_sidechain": [false], "free_energy": -8.664, "intermolecular_energy": -10.212, "internal_energy": -0.347}

$$$$
ligand_65_conformer_3_docked
     RDKit          3D

 34 37  0  0  0  0  0  0  0  0999 V2000
    3.5310   42.1030   50.8460 C   0  0  0  0  0  0  0  0  0  0  0  0
    4.0790   43.2020   51.7680 C   0  0  1  0  0  0  0  0  0  0  0  0
    4.6760   44.2910   50.9850 N   0  0  0  0  0  0  0  0  0  0  0  0
    6.0000   44.8110   51.1970 C   0  0  0  0  0  0  0  0  0  0  0  0
    6.2740   45.6630   52.2320 N   0  0  0  0  0  0  0  0  0  0  0  0
    7.5310   46.1570   52.4510 C   0  0  0  0  0  0  0  0  0  0  0  0
    7.7820   47.0230   53.5190 C   0  0  0  0  0  0  0  0  0  0  0  0
    9.0760   47.5170   53.7270 C   0  0  0  0  0  0  0  0  0  0  0  0
   10.1220   47.1460   52.8710 C   0  0  0  0  0  0  0  0  0  0  0  0
    9.8820   46.2780   51.7990 C   0  0  0  0  0  0  0  0  0  0  0  0
    8.5900   45.7820   51.5880 C   0  0  0  0  0  0  0  0  0  0  0  0
    8.2850   44.9360   50.5720 N   0  0  0  0  0  0  0  0  0  0  0  0
    9.0650   44.4330   49.6360 N   0  0  0  0  0  0  0  0  0  0  0  0
    8.3150   43.6520   48.8640 N   0  0  0  0  0  0  0  0  0  0  0  0
    7.0520   43.6440   49.2900 N   0  0  0  0  0  0  0  0  0  0  0  0
    7.0600   44.4560   50.3610 C   0  0  0  0  0  0  0  0  0  0  0  0
    3.0880   43.7460   52.7780 C   0  0  0  0  0  0  0  0  0  0  0  0
    3.4480   44.6270   53.8170 C   0  0  0  0  0  0  0  0  0  0  0  0
    2.5030   45.0410   54.7030 N   0  0  0  0  0  0  0  0  0  0  0  0
    1.2160   44.6190   54.6110 C   0  0  0  0  0  0  0  0  0  0  0  0
    0.8550   43.7410   53.5910 C   0  0  0  0  0  0  0  0  0  0  0  0
    1.7950   43.3250   52.7050 N   0  0  0  0  0  0  0  0  0  0  0  0
    3.1223   41.2834   51.4552 H   0  0  0  0  0  0  0  0  0  0  0  0
    2.7353   42.5200   50.2112 H   0  0  0  0  0  0  0  0  0  0  0  0
    4.3428   41.7184   50.2112 H   0  0  0  0  0  0  0  0  0  0  0  0
    4.8558   42.7069   52.3693 H   0  0  0  0  0  0  0  0  0  0  0  0
    4.0990   44.6990   50.2140 H   0  0  0  0  0  0  0  0  0  0  0  0
    6.9650   47.3160   54.1948 H   0  0  0  0  0  0  0  0  0  0  0  0
    9.2724   48.1998   54.5667 H   0  0  0  0  0  0  0  0  0  0  0  0
   11.1353   47.5383   53.0421 H   0  0  0  0  0  0  0  0  0  0  0  0
   10.7031   45.9877   51.1271 H   0  0  0  0  0  0  0  0  0  0  0  0
    4.4864   44.9776   53.9109 H   0  0  0  0  0  0  0  0  0  0  0  0
    0.4648   44.9671   55.3352 H   0  0  0  0  0  0  0  0  0  0  0  0
   -0.1832   43.3880   53.5047 H   0  0  0  0  0  0  0  0  0  0  0  0
  1  2  1  0
  2  3  1  0
  3  4  1  0
  4  5  2  0
  5  6  1  0
  6  7  2  0
  7  8  1  0
  8  9  2  0
  9 10  1  0
 10 11  2  0
 11 12  1  0
 12 13  1  0
 13 14  2  0
 14 15  1  0
 15 16  2  0
  2 17  1  0
 17 18  2  0
 18 19  1  0
 19 20  2  0
 20 21  1  0
 21 22  2  0
 16  4  1  0
 22 17  1  0
 11  6  1  0
 16 12  1  0
  1 23  1  0
  1 24  1  0
  1 25  1  0
  2 26  1  1
  3 27  1  0
  7 28  1  0
  8 29  1  0
  9 30  1  0
 10 31  1  0
 18 32  1  0
 20 33  1  0
 21 34  1  0
M  END
>  <meeko>  (3) 
{"is_sidechain": [false], "free_energy": -8.447, "intermolecular_energy": -9.907, "internal_energy": -0.399}

$$$$
ligand_65_conformer_3_docked
     RDKit          3D

 34 37  0  0  0  0  0  0  0  0999 V2000
    4.0120   42.4360   51.0860 C   0  0  0  0  0  0  0  0  0  0  0  0
    3.4890   43.7330   51.7200 C   0  0  1  0  0  0  0  0  0  0  0  0
    4.1900   44.9020   51.1750 N   0  0  0  0  0  0  0  0  0  0  0  0
    5.3200   45.5340   51.8000 C   0  0  0  0  0  0  0  0  0  0  0  0
    6.5850   45.3900   51.2980 N   0  0  0  0  0  0  0  0  0  0  0  0
    7.6680   45.9950   51.8760 C   0  0  0  0  0  0  0  0  0  0  0  0
    8.9480   45.8320   51.3380 C   0  0  0  0  0  0  0  0  0  0  0  0
   10.0440   46.4600   51.9450 C   0  0  0  0  0  0  0  0  0  0  0  0
    9.8630   47.2510   53.0870 C   0  0  0  0  0  0  0  0  0  0  0  0
    8.5860   47.4220   53.6340 C   0  0  0  0  0  0  0  0  0  0  0  0
    7.4870   46.7960   53.0300 C   0  0  0  0  0  0  0  0  0  0  0  0
    6.2220   46.9180   53.5030 N   0  0  0  0  0  0  0  0  0  0  0  0
    5.7760   47.5930   54.5440 N   0  0  0  0  0  0  0  0  0  0  0  0
    4.4600   47.4130   54.6060 N   0  0  0  0  0  0  0  0  0  0  0  0
    4.0460   46.6250   53.6140 N   0  0  0  0  0  0  0  0  0  0  0  0
    5.1690   46.3290   52.9380 C   0  0  0  0  0  0  0  0  0  0  0  0
    1.9870   43.9240   51.6470 C   0  0  0  0  0  0  0  0  0  0  0  0
    1.1360   43.0920   50.8910 C   0  0  0  0  0  0  0  0  0  0  0  0
   -0.1970   43.3550   50.8520 N   0  0  0  0  0  0  0  0  0  0  0  0
   -0.7300   44.4080   51.5230 C   0  0  0  0  0  0  0  0  0  0  0  0
    0.1060   45.2400   52.2650 C   0  0  0  0  0  0  0  0  0  0  0  0
    1.4380   44.9820   52.3070 N   0  0  0  0  0  0  0  0  0  0  0  0
    4.2970   41.7291   51.8792 H   0  0  0  0  0  0  0  0  0  0  0  0
    3.2238   41.9890   50.4623 H   0  0  0  0  0  0  0  0  0  0  0  0
    4.8898   42.6607   50.4623 H   0  0  0  0  0  0  0  0  0  0  0  0
    3.7116   43.6329   52.7926 H   0  0  0  0  0  0  0  0  0  0  0  0
    3.8490   45.2820   50.2630 H   0  0  0  0  0  0  0  0  0  0  0  0
    9.0945   45.2126   50.4408 H   0  0  0  0  0  0  0  0  0  0  0  0
   11.0515   46.3312   51.5226 H   0  0  0  0  0  0  0  0  0  0  0  0
   10.7292   47.7404   53.5564 H   0  0  0  0  0  0  0  0  0  0  0  0
    8.4460   48.0430   54.5311 H   0  0  0  0  0  0  0  0  0  0  0  0
    1.5480   42.2359   50.3366 H   0  0  0  0  0  0  0  0  0  0  0  0
   -1.8118   44.6026   51.4813 H   0  0  0  0  0  0  0  0  0  0  0  0
   -0.3100   46.0988   52.8122 H   0  0  0  0  0  0  0  0  0  0  0  0
  1  2  1  0
  2  3  1  0
  3  4  1  0
  4  5  2  0
  5  6  1  0
  6  7  2  0
  7  8  1  0
  8  9  2  0
  9 10  1  0
 10 11  2  0
 11 12  1  0
 12 13  1  0
 13 14  2  0
 14 15  1  0
 15 16  2  0
  2 17  1  0
 17 18  2  0
 18 19  1  0
 19 20  2  0
 20 21  1  0
 21 22  2  0
 16  4  1  0
 22 17  1  0
 11  6  1  0
 16 12  1  0
  1 23  1  0
  1 24  1  0
  1 25  1  0
  2 26  1  1
  3 27  1  0
  7 28  1  0
  8 29  1  0
  9 30  1  0
 10 31  1  0
 18 32  1  0
 20 33  1  0
 21 34  1  0
M  END
>  <meeko>  (4) 
{"is_sidechain": [false], "free_energy": -8.436, "intermolecular_energy": -9.874, "internal_energy": -0.418}

$$$$
ligand_65_conformer_3_docked
     RDKit          3D

 34 37  0  0  0  0  0  0  0  0999 V2000
    0.9150   45.2730   56.0610 C   0  0  0  0  0  0  0  0  0  0  0  0
    1.3620   44.9530   54.6270 C   0  0  1  0  0  0  0  0  0  0  0  0
    2.6870   44.3220   54.6220 N   0  0  0  0  0  0  0  0  0  0  0  0
    3.7720   44.7200   53.7640 C   0  0  0  0  0  0  0  0  0  0  0  0
    4.1760   43.9360   52.7180 N   0  0  0  0  0  0  0  0  0  0  0  0
    5.2000   44.3060   51.8880 C   0  0  0  0  0  0  0  0  0  0  0  0
    5.5890   43.4850   50.8250 C   0  0  0  0  0  0  0  0  0  0  0  0
    6.6390   43.8830   49.9860 C   0  0  0  0  0  0  0  0  0  0  0  0
    7.2990   45.0990   50.2060 C   0  0  0  0  0  0  0  0  0  0  0  0
    6.9160   45.9290   51.2670 C   0  0  0  0  0  0  0  0  0  0  0  0
    5.8680   45.5350   52.1080 C   0  0  0  0  0  0  0  0  0  0  0  0
    5.4420   46.2890   53.1530 N   0  0  0  0  0  0  0  0  0  0  0  0
    5.8780   47.4590   53.5770 N   0  0  0  0  0  0  0  0  0  0  0  0
    5.1470   47.8000   54.6350 N   0  0  0  0  0  0  0  0  0  0  0  0
    4.2400   46.8620   54.9020 N   0  0  0  0  0  0  0  0  0  0  0  0
    4.4450   45.9260   53.9590 C   0  0  0  0  0  0  0  0  0  0  0  0
    0.3760   44.1400   53.8130 C   0  0  0  0  0  0  0  0  0  0  0  0
    0.4570   42.7390   53.6730 C   0  0  0  0  0  0  0  0  0  0  0  0
   -0.4490   42.0900   52.8940 N   0  0  0  0  0  0  0  0  0  0  0  0
   -1.4320   42.7630   52.2430 C   0  0  0  0  0  0  0  0  0  0  0  0
   -1.5140   44.1480   52.3710 C   0  0  0  0  0  0  0  0  0  0  0  0
   -0.6100   44.8010   53.1460 N   0  0  0  0  0  0  0  0  0  0  0  0
    1.5957   44.7857   56.7746 H   0  0  0  0  0  0  0  0  0  0  0  0
    0.9374   46.3615   56.2178 H   0  0  0  0  0  0  0  0  0  0  0  0
   -0.1082   44.9009   56.2178 H   0  0  0  0  0  0  0  0  0  0  0  0
    1.4121   45.9285   54.1212 H   0  0  0  0  0  0  0  0  0  0  0  0
    2.8500   43.5450   55.3010 H   0  0  0  0  0  0  0  0  0  0  0  0
    5.0727   42.5300   50.6478 H   0  0  0  0  0  0  0  0  0  0  0  0
    6.9464   43.2371   49.1504 H   0  0  0  0  0  0  0  0  0  0  0  0
    8.1218   45.4032   49.5424 H   0  0  0  0  0  0  0  0  0  0  0  0
    7.4348   46.8837   51.4385 H   0  0  0  0  0  0  0  0  0  0  0  0
    1.2474   42.1754   54.1903 H   0  0  0  0  0  0  0  0  0  0  0  0
   -2.1575   42.2196   51.6198 H   0  0  0  0  0  0  0  0  0  0  0  0
   -2.3041   44.7076   51.8489 H   0  0  0  0  0  0  0  0  0  0  0  0
  1  2  1  0
  2  3  1  0
  3  4  1  0
  4  5  2  0
  5  6  1  0
  6  7  2  0
  7  8  1  0
  8  9  2  0
  9 10  1  0
 10 11  2  0
 11 12  1  0
 12 13  1  0
 13 14  2  0
 14 15  1  0
 15 16  2  0
  2 17  1  0
 17 18  2  0
 18 19  1  0
 19 20  2  0
 20 21  1  0
 21 22  2  0
 16  4  1  0
 22 17  1  0
 11  6  1  0
 16 12  1  0
  1 23  1  0
  1 24  1  0
  1 25  1  0
  2 26  1  6
  3 27  1  0
  7 28  1  0
  8 29  1  0
  9 30  1  0
 10 31  1  0
 18 32  1  0
 20 33  1  0
 21 34  1  0
M  END
>  <meeko>  (5) 
{"is_sidechain": [false], "free_energy": -8.345, "intermolecular_energy": -9.713, "internal_energy": -0.473}

$$$$
