ligand_80_conformer_3_docked
     RDKit          3D

 43 45  0  0  0  0  0  0  0  0999 V2000
    9.9350   47.5820   55.0910 C   0  0  0  0  0  0  0  0  0  0  0  0
    9.2680   47.2100   53.8410 N   0  0  0  0  0  0  0  0  0  0  0  0
    9.9830   47.2650   52.5600 C   0  0  0  0  0  0  0  0  0  0  0  0
    9.6360   46.0470   51.6960 C   0  0  0  0  0  0  0  0  0  0  0  0
    8.1420   45.8790   51.5650 C   0  0  0  0  0  0  0  0  0  0  0  0
    7.5980   45.2950   50.4110 C   0  0  0  0  0  0  0  0  0  0  0  0
    6.2220   45.0760   50.3100 C   0  0  0  0  0  0  0  0  0  0  0  0
    5.3690   45.4110   51.3750 C   0  0  0  0  0  0  0  0  0  0  0  0
    3.9470   45.2140   51.2850 N   0  0  0  0  0  0  0  0  0  0  0  0
    3.2930   43.9630   51.5450 C   0  0  0  0  0  0  0  0  0  0  0  0
    3.9280   42.9980   52.0470 O   0  0  0  0  0  0  0  0  0  0  0  0
    1.8210   43.8180   51.2980 C   0  0  0  0  0  0  0  0  0  0  0  0
    1.0700   44.0700   52.5340 N   0  0  0  0  0  0  0  0  0  0  0  0
    0.6290   42.9270   53.3460 C   0  0  0  0  0  0  0  0  0  0  0  0
   -0.5430   43.3100   54.2540 C   0  0  0  0  0  0  0  0  0  0  0  0
   -0.1630   44.4990   55.1370 C   0  0  0  0  0  0  0  0  0  0  0  0
    0.2980   45.6190   54.3220 N   0  0  0  0  0  0  0  0  0  0  0  0
    0.9740   45.4010   53.0790 C   0  0  0  0  0  0  0  0  0  0  0  0
    1.4570   46.3860   52.4560 O   0  0  0  0  0  0  0  0  0  0  0  0
    5.9100   46.0000   52.5270 C   0  0  0  0  0  0  0  0  0  0  0  0
    7.2910   46.2260   52.6340 C   0  0  0  0  0  0  0  0  0  0  0  0
    7.8800   46.8310   53.8470 C   0  0  0  0  0  0  0  0  0  0  0  0
    7.1790   46.9990   54.8820 O   0  0  0  0  0  0  0  0  0  0  0  0
    9.3291   47.2441   55.9446 H   0  0  0  0  0  0  0  0  0  0  0  0
   10.9259   47.1063   55.1335 H   0  0  0  0  0  0  0  0  0  0  0  0
   10.0509   48.6750   55.1335 H   0  0  0  0  0  0  0  0  0  0  0  0
    9.6955   48.1819   52.0245 H   0  0  0  0  0  0  0  0  0  0  0  0
   11.0651   47.2632   52.7574 H   0  0  0  0  0  0  0  0  0  0  0  0
   10.0711   46.1816   50.6947 H   0  0  0  0  0  0  0  0  0  0  0  0
   10.0466   45.1484   52.1796 H   0  0  0  0  0  0  0  0  0  0  0  0
    8.2594   45.0077   49.5803 H   0  0  0  0  0  0  0  0  0  0  0  0
    5.8039   44.6387   49.3913 H   0  0  0  0  0  0  0  0  0  0  0  0
    3.3490   46.0520   51.1110 H   0  0  0  0  0  0  0  0  0  0  0  0
    1.5089   44.5410   50.5299 H   0  0  0  0  0  0  0  0  0  0  0  0
    1.6146   42.7929   50.9565 H   0  0  0  0  0  0  0  0  0  0  0  0
    0.3132   42.1128   52.6772 H   0  0  0  0  0  0  0  0  0  0  0  0
    1.4690   42.6060   53.9795 H   0  0  0  0  0  0  0  0  0  0  0  0
   -1.4096   43.5813   53.6331 H   0  0  0  0  0  0  0  0  0  0  0  0
   -0.7934   42.4527   54.8962 H   0  0  0  0  0  0  0  0  0  0  0  0
   -1.0425   44.8130   55.7183 H   0  0  0  0  0  0  0  0  0  0  0  0
    0.6504   44.1935   55.8116 H   0  0  0  0  0  0  0  0  0  0  0  0
    0.2400   46.5870   54.7110 H   0  0  0  0  0  0  0  0  0  0  0  0
    5.2454   46.2877   53.3549 H   0  0  0  0  0  0  0  0  0  0  0  0
  1  2  1  0
  2  3  1  0
  3  4  1  0
  4  5  1  0
  5  6  2  0
  6  7  1  0
  7  8  2  0
  8  9  1  0
  9 10  1  0
 10 11  2  0
 10 12  1  0
 12 13  1  0
 13 14  1  0
 14 15  1  0
 15 16  1  0
 16 17  1  0
 17 18  1  0
 18 19  2  0
  8 20  1  0
 20 21  2  0
 21 22  1  0
 22 23  2  0
 22  2  1  0
 21  5  1  0
 18 13  1  0
  1 24  1  0
  1 25  1  0
  1 26  1  0
  3 27  1  0
  3 28  1  0
  4 29  1  0
  4 30  1  0
  6 31  1  0
  7 32  1  0
  9 33  1  0
 12 34  1  0
 12 35  1  0
 14 36  1  0
 14 37  1  0
 15 38  1  0
 15 39  1  0
 16 40  1  0
 16 41  1  0
 17 42  1  0
 20 43  1  0
M  END
>  <meeko>  (1) 
{"is_sidechain": [false], "free_energy": -8.732, "intermolecular_energy": -10.264, "internal_energy": -0.524}

$$$$
ligand_80_conformer_3_docked
     RDKit          3D

 43 45  0  0  0  0  0  0  0  0999 V2000
    9.2680   47.7920   53.9870 C   0  0  0  0  0  0  0  0  0  0  0  0
    8.2580   47.1480   53.1430 N   0  0  0  0  0  0  0  0  0  0  0  0
    8.2900   47.2990   51.6820 C   0  0  0  0  0  0  0  0  0  0  0  0
    7.9650   45.9660   50.9970 C   0  0  0  0  0  0  0  0  0  0  0  0
    6.6820   45.3760   51.5310 C   0  0  0  0  0  0  0  0  0  0  0  0
    5.8810   44.5730   50.7070 C   0  0  0  0  0  0  0  0  0  0  0  0
    4.7270   43.9690   51.2130 C   0  0  0  0  0  0  0  0  0  0  0  0
    4.3710   44.1370   52.5610 C   0  0  0  0  0  0  0  0  0  0  0  0
    3.1760   43.5420   53.0990 N   0  0  0  0  0  0  0  0  0  0  0  0
    1.8930   44.1860   53.1070 C   0  0  0  0  0  0  0  0  0  0  0  0
    1.7080   45.2570   52.4700 O   0  0  0  0  0  0  0  0  0  0  0  0
    0.7330   43.5430   53.8070 C   0  0  0  0  0  0  0  0  0  0  0  0
    0.2540   44.4050   54.8950 N   0  0  0  0  0  0  0  0  0  0  0  0
    1.2210   44.9200   55.8760 C   0  0  0  0  0  0  0  0  0  0  0  0
    0.5270   45.3240   57.1800 C   0  0  0  0  0  0  0  0  0  0  0  0
   -0.5730   46.3490   56.9000 C   0  0  0  0  0  0  0  0  0  0  0  0
   -1.5120   45.8380   55.9050 N   0  0  0  0  0  0  0  0  0  0  0  0
   -1.0840   44.9430   54.8730 C   0  0  0  0  0  0  0  0  0  0  0  0
   -1.8950   44.6100   53.9670 O   0  0  0  0  0  0  0  0  0  0  0  0
    5.1670   44.9440   53.3860 C   0  0  0  0  0  0  0  0  0  0  0  0
    6.3270   45.5560   52.8830 C   0  0  0  0  0  0  0  0  0  0  0  0
    7.1870   46.3970   53.7410 C   0  0  0  0  0  0  0  0  0  0  0  0
    6.9950   46.4450   54.9870 O   0  0  0  0  0  0  0  0  0  0  0  0
    9.0171   47.6320   55.0460 H   0  0  0  0  0  0  0  0  0  0  0  0
   10.2554   47.3564   53.7743 H   0  0  0  0  0  0  0  0  0  0  0  0
    9.2897   48.8710   53.7743 H   0  0  0  0  0  0  0  0  0  0  0  0
    7.5473   48.0519   51.3796 H   0  0  0  0  0  0  0  0  0  0  0  0
    9.2983   47.6180   51.3793 H   0  0  0  0  0  0  0  0  0  0  0  0
    7.8592   46.1350   49.9152 H   0  0  0  0  0  0  0  0  0  0  0  0
    8.7841   45.2607   51.2013 H   0  0  0  0  0  0  0  0  0  0  0  0
    6.1628   44.4174   49.6552 H   0  0  0  0  0  0  0  0  0  0  0  0
    4.0941   43.3587   50.5520 H   0  0  0  0  0  0  0  0  0  0  0  0
    3.2280   42.5490   53.4180 H   0  0  0  0  0  0  0  0  0  0  0  0
   -0.0820   43.3817   53.0860 H   0  0  0  0  0  0  0  0  0  0  0  0
    1.0581   42.5806   54.2291 H   0  0  0  0  0  0  0  0  0  0  0  0
    1.9634   44.1377   56.0924 H   0  0  0  0  0  0  0  0  0  0  0  0
    1.7074   45.8102   55.4506 H   0  0  0  0  0  0  0  0  0  0  0  0
    0.0821   44.4323   57.6457 H   0  0  0  0  0  0  0  0  0  0  0  0
    1.2696   45.7717   57.8569 H   0  0  0  0  0  0  0  0  0  0  0  0
   -1.1153   46.5610   57.8332 H   0  0  0  0  0  0  0  0  0  0  0  0
   -0.1101   47.2679   56.5111 H   0  0  0  0  0  0  0  0  0  0  0  0
   -2.4810   46.2270   55.8770 H   0  0  0  0  0  0  0  0  0  0  0  0
    4.8806   45.0993   54.4366 H   0  0  0  0  0  0  0  0  0  0  0  0
  1  2  1  0
  2  3  1  0
  3  4  1  0
  4  5  1  0
  5  6  2  0
  6  7  1  0
  7  8  2  0
  8  9  1  0
  9 10  1  0
 10 11  2  0
 10 12  1  0
 12 13  1  0
 13 14  1  0
 14 15  1  0
 15 16  1  0
 16 17  1  0
 17 18  1  0
 18 19  2  0
  8 20  1  0
 20 21  2  0
 21 22  1  0
 22 23  2  0
 22  2  1  0
 21  5  1  0
 18 13  1  0
  1 24  1  0
  1 25  1  0
  1 26  1  0
  3 27  1  0
  3 28  1  0
  4 29  1  0
  4 30  1  0
  6 31  1  0
  7 32  1  0
  9 33  1  0
 12 34  1  0
 12 35  1  0
 14 36  1  0
 14 37  1  0
 15 38  1  0
 15 39  1  0
 16 40  1  0
 16 41  1  0
 17 42  1  0
 20 43  1  0
M  END
>  <meeko>  (2) 
{"is_sidechain": [false], "free_energy": -8.535, "intermolecular_energy": -10.075, "internal_energy": -0.481}

$$$$
ligand_80_conformer_3_docked
     RDKit          3D

 43 45  0  0  0  0  0  0  0  0999 V2000
    9.5850   47.5320   53.7830 C   0  0  0  0  0  0  0  0  0  0  0  0
    8.4360   47.0360   53.0230 N   0  0  0  0  0  0  0  0  0  0  0  0
    8.3870   47.1620   51.5610 C   0  0  0  0  0  0  0  0  0  0  0  0
    7.8210   45.8850   50.9280 C   0  0  0  0  0  0  0  0  0  0  0  0
    6.5060   45.5000   51.5600 C   0  0  0  0  0  0  0  0  0  0  0  0
    5.5390   44.8150   50.8100 C   0  0  0  0  0  0  0  0  0  0  0  0
    4.3470   44.3970   51.4050 C   0  0  0  0  0  0  0  0  0  0  0  0
    4.1140   44.6320   52.7710 C   0  0  0  0  0  0  0  0  0  0  0  0
    2.8850   44.2290   53.4010 N   0  0  0  0  0  0  0  0  0  0  0  0
    1.8670   45.1440   53.8320 C   0  0  0  0  0  0  0  0  0  0  0  0
    1.9220   46.3630   53.5140 O   0  0  0  0  0  0  0  0  0  0  0  0
    0.6790   44.6430   54.5980 C   0  0  0  0  0  0  0  0  0  0  0  0
   -0.2940   44.0320   53.6840 N   0  0  0  0  0  0  0  0  0  0  0  0
   -1.2750   44.8930   53.0070 C   0  0  0  0  0  0  0  0  0  0  0  0
   -2.4950   44.0890   52.5470 C   0  0  0  0  0  0  0  0  0  0  0  0
   -2.0580   42.9350   51.6430 C   0  0  0  0  0  0  0  0  0  0  0  0
   -1.0650   42.1020   52.3160 N   0  0  0  0  0  0  0  0  0  0  0  0
   -0.1470   42.6610   53.2610 C   0  0  0  0  0  0  0  0  0  0  0  0
    0.7670   41.9360   53.7380 O   0  0  0  0  0  0  0  0  0  0  0  0
    5.0770   45.3220   53.5220 C   0  0  0  0  0  0  0  0  0  0  0  0
    6.2760   45.7470   52.9290 C   0  0  0  0  0  0  0  0  0  0  0  0
    7.3090   46.4610   53.7080 C   0  0  0  0  0  0  0  0  0  0  0  0
    7.2130   46.5520   54.9630 O   0  0  0  0  0  0  0  0  0  0  0  0
    9.3785   47.4429   54.8598 H   0  0  0  0  0  0  0  0  0  0  0  0
   10.4758   46.9383   53.5301 H   0  0  0  0  0  0  0  0  0  0  0  0
    9.7639   48.5875   53.5301 H   0  0  0  0  0  0  0  0  0  0  0  0
    7.7447   48.0138   51.2929 H   0  0  0  0  0  0  0  0  0  0  0  0
    9.4080   47.3221   51.1844 H   0  0  0  0  0  0  0  0  0  0  0  0
    7.6659   46.0558   49.8525 H   0  0  0  0  0  0  0  0  0  0  0  0
    8.5387   45.0675   51.0910 H   0  0  0  0  0  0  0  0  0  0  0  0
    5.7209   44.6056   49.7455 H   0  0  0  0  0  0  0  0  0  0  0  0
    3.5860   43.8809   50.8013 H   0  0  0  0  0  0  0  0  0  0  0  0
    2.6820   43.2070   53.4620 H   0  0  0  0  0  0  0  0  0  0  0  0
    1.0097   43.8924   55.3310 H   0  0  0  0  0  0  0  0  0  0  0  0
    0.2029   45.4892   55.1149 H   0  0  0  0  0  0  0  0  0  0  0  0
   -1.6046   45.6778   53.7038 H   0  0  0  0  0  0  0  0  0  0  0  0
   -0.7963   45.3361   52.1213 H   0  0  0  0  0  0  0  0  0  0  0  0
   -3.0158   43.6838   53.4271 H   0  0  0  0  0  0  0  0  0  0  0  0
   -3.1688   44.7509   51.9831 H   0  0  0  0  0  0  0  0  0  0  0  0
   -2.9351   42.3204   51.3920 H   0  0  0  0  0  0  0  0  0  0  0  0
   -1.6104   43.3511   50.7284 H   0  0  0  0  0  0  0  0  0  0  0  0
   -0.9460   41.1100   52.0110 H   0  0  0  0  0  0  0  0  0  0  0  0
    4.8908   45.5320   54.5856 H   0  0  0  0  0  0  0  0  0  0  0  0
  1  2  1  0
  2  3  1  0
  3  4  1  0
  4  5  1  0
  5  6  2  0
  6  7  1  0
  7  8  2  0
  8  9  1  0
  9 10  1  0
 10 11  2  0
 10 12  1  0
 12 13  1  0
 13 14  1  0
 14 15  1  0
 15 16  1  0
 16 17  1  0
 17 18  1  0
 18 19  2  0
  8 20  1  0
 20 21  2  0
 21 22  1  0
 22 23  2  0
 22  2  1  0
 21  5  1  0
 18 13  1  0
  1 24  1  0
  1 25  1  0
  1 26  1  0
  3 27  1  0
  3 28  1  0
  4 29  1  0
  4 30  1  0
  6 31  1  0
  7 32  1  0
  9 33  1  0
 12 34  1  0
 12 35  1  0
 14 36  1  0
 14 37  1  0
 15 38  1  0
 15 39  1  0
 16 40  1  0
 16 41  1  0
 17 42  1  0
 20 43  1  0
M  END
>  <meeko>  (3) 
{"is_sidechain": [false], "free_energy": -8.057, "intermolecular_energy": -9.484, "internal_energy": -0.509}

$$$$
ligand_80_conformer_3_docked
     RDKit          3D

 43 45  0  0  0  0  0  0  0  0999 V2000
    8.5700   46.1550   50.9210 C   0  0  0  0  0  0  0  0  0  0  0  0
    7.5690   45.1460   50.5660 N   0  0  0  0  0  0  0  0  0  0  0  0
    7.7370   44.3030   49.3750 C   0  0  0  0  0  0  0  0  0  0  0  0
    7.3250   42.8580   49.6760 C   0  0  0  0  0  0  0  0  0  0  0  0
    5.9460   42.7990   50.2870 C   0  0  0  0  0  0  0  0  0  0  0  0
    5.1310   41.6770   50.0780 C   0  0  0  0  0  0  0  0  0  0  0  0
    3.8800   41.5860   50.6930 C   0  0  0  0  0  0  0  0  0  0  0  0
    3.4340   42.6060   51.5510 C   0  0  0  0  0  0  0  0  0  0  0  0
    2.1420   42.5440   52.1780 N   0  0  0  0  0  0  0  0  0  0  0  0
    1.1090   43.5230   51.9880 C   0  0  0  0  0  0  0  0  0  0  0  0
    1.2240   44.4130   51.1030 O   0  0  0  0  0  0  0  0  0  0  0  0
   -0.1580   43.4460   52.7850 C   0  0  0  0  0  0  0  0  0  0  0  0
    0.0150   44.1130   54.0810 N   0  0  0  0  0  0  0  0  0  0  0  0
    1.1380   45.0440   54.2600 C   0  0  0  0  0  0  0  0  0  0  0  0
    1.4820   45.2210   55.7420 C   0  0  0  0  0  0  0  0  0  0  0  0
    0.2500   45.6880   56.5190 C   0  0  0  0  0  0  0  0  0  0  0  0
   -0.8670   44.7710   56.3130 N   0  0  0  0  0  0  0  0  0  0  0  0
   -1.0220   44.0570   55.0820 C   0  0  0  0  0  0  0  0  0  0  0  0
   -2.0570   43.3610   54.8970 O   0  0  0  0  0  0  0  0  0  0  0  0
    4.2450   43.7310   51.7560 C   0  0  0  0  0  0  0  0  0  0  0  0
    5.5020   43.8300   51.1390 C   0  0  0  0  0  0  0  0  0  0  0  0
    6.3760   45.0020   51.3570 C   0  0  0  0  0  0  0  0  0  0  0  0
    6.0880   45.8590   52.2370 O   0  0  0  0  0  0  0  0  0  0  0  0
    8.6435   46.2291   52.0160 H   0  0  0  0  0  0  0  0  0  0  0  0
    9.5466   45.8642   50.5068 H   0  0  0  0  0  0  0  0  0  0  0  0
    8.2714   47.1293   50.5068 H   0  0  0  0  0  0  0  0  0  0  0  0
    7.1091   44.6963   48.5620 H   0  0  0  0  0  0  0  0  0  0  0  0
    8.7959   44.3157   49.0774 H   0  0  0  0  0  0  0  0  0  0  0  0
    7.3271   42.2818   48.7390 H   0  0  0  0  0  0  0  0  0  0  0  0
    8.0423   42.4339   50.3941 H   0  0  0  0  0  0  0  0  0  0  0  0
    5.4792   40.8629   49.4253 H   0  0  0  0  0  0  0  0  0  0  0  0
    3.2404   40.7111   50.5047 H   0  0  0  0  0  0  0  0  0  0  0  0
    1.9090   41.6890   52.7300 H   0  0  0  0  0  0  0  0  0  0  0  0
   -0.9679   43.9397   52.2279 H   0  0  0  0  0  0  0  0  0  0  0  0
   -0.4093   42.3890   52.9569 H   0  0  0  0  0  0  0  0  0  0  0  0
    2.0186   44.6491   53.7322 H   0  0  0  0  0  0  0  0  0  0  0  0
    0.8466   46.0229   53.8514 H   0  0  0  0  0  0  0  0  0  0  0  0
    1.8274   44.2604   56.1519 H   0  0  0  0  0  0  0  0  0  0  0  0
    2.2747   45.9776   55.8382 H   0  0  0  0  0  0  0  0  0  0  0  0
    0.4925   45.7269   57.5912 H   0  0  0  0  0  0  0  0  0  0  0  0
   -0.0396   46.6856   56.1572 H   0  0  0  0  0  0  0  0  0  0  0  0
   -1.6270   44.7300   57.0290 H   0  0  0  0  0  0  0  0  0  0  0  0
    3.8927   44.5446   52.4071 H   0  0  0  0  0  0  0  0  0  0  0  0
  1  2  1  0
  2  3  1  0
  3  4  1  0
  4  5  1  0
  5  6  2  0
  6  7  1  0
  7  8  2  0
  8  9  1  0
  9 10  1  0
 10 11  2  0
 10 12  1  0
 12 13  1  0
 13 14  1  0
 14 15  1  0
 15 16  1  0
 16 17  1  0
 17 18  1  0
 18 19  2  0
  8 20  1  0
 20 21  2  0
 21 22  1  0
 22 23  2  0
 22  2  1  0
 21  5  1  0
 18 13  1  0
  1 24  1  0
  1 25  1  0
  1 26  1  0
  3 27  1  0
  3 28  1  0
  4 29  1  0
  4 30  1  0
  6 31  1  0
  7 32  1  0
  9 33  1  0
 12 34  1  0
 12 35  1  0
 14 36  1  0
 14 37  1  0
 15 38  1  0
 15 39  1  0
 16 40  1  0
 16 41  1  0
 17 42  1  0
 20 43  1  0
M  END
>  <meeko>  (4) 
{"is_sidechain": [false], "free_energy": -7.641, "intermolecular_energy": -9.381, "internal_energy": -0.124}

$$$$
ligand_80_conformer_3_docked
     RDKit          3D

 43 45  0  0  0  0  0  0  0  0999 V2000
    8.3400   46.8430   51.5790 C   0  0  0  0  0  0  0  0  0  0  0  0
    7.4430   45.7950   51.0870 N   0  0  0  0  0  0  0  0  0  0  0  0
    7.6390   45.1950   49.7610 C   0  0  0  0  0  0  0  0  0  0  0  0
    7.4140   43.6790   49.8170 C   0  0  0  0  0  0  0  0  0  0  0  0
    6.0870   43.3490   50.4560 C   0  0  0  0  0  0  0  0  0  0  0  0
    5.3960   42.1870   50.0810 C   0  0  0  0  0  0  0  0  0  0  0  0
    4.2000   41.8390   50.7140 C   0  0  0  0  0  0  0  0  0  0  0  0
    3.6900   42.6350   51.7540 C   0  0  0  0  0  0  0  0  0  0  0  0
    2.4500   42.3080   52.4070 N   0  0  0  0  0  0  0  0  0  0  0  0
    1.1570   42.6740   51.9020 C   0  0  0  0  0  0  0  0  0  0  0  0
    1.0320   43.1570   50.7440 O   0  0  0  0  0  0  0  0  0  0  0  0
   -0.0730   42.4050   52.7160 C   0  0  0  0  0  0  0  0  0  0  0  0
   -1.0600   43.4740   52.5160 N   0  0  0  0  0  0  0  0  0  0  0  0
   -2.2420   43.2070   51.6850 C   0  0  0  0  0  0  0  0  0  0  0  0
   -2.8530   44.5070   51.1550 C   0  0  0  0  0  0  0  0  0  0  0  0
   -3.1950   45.4430   52.3150 C   0  0  0  0  0  0  0  0  0  0  0  0
   -2.0200   45.6800   53.1480 N   0  0  0  0  0  0  0  0  0  0  0  0
   -1.0100   44.6780   53.3070 C   0  0  0  0  0  0  0  0  0  0  0  0
   -0.0670   44.8740   54.1210 O   0  0  0  0  0  0  0  0  0  0  0  0
    4.3760   43.8000   52.1260 C   0  0  0  0  0  0  0  0  0  0  0  0
    5.5760   44.1560   51.4920 C   0  0  0  0  0  0  0  0  0  0  0  0
    6.3210   45.3720   51.8820 C   0  0  0  0  0  0  0  0  0  0  0  0
    5.9870   46.0240   52.9090 O   0  0  0  0  0  0  0  0  0  0  0  0
    8.3380   46.8407   52.6790 H   0  0  0  0  0  0  0  0  0  0  0  0
    9.3602   46.6537   51.2138 H   0  0  0  0  0  0  0  0  0  0  0  0
    7.9955   47.8217   51.2138 H   0  0  0  0  0  0  0  0  0  0  0  0
    6.9247   45.6408   49.0531 H   0  0  0  0  0  0  0  0  0  0  0  0
    8.6707   45.3889   49.4325 H   0  0  0  0  0  0  0  0  0  0  0  0
    7.4301   43.2755   48.7938 H   0  0  0  0  0  0  0  0  0  0  0  0
    8.2145   43.2295   50.4229 H   0  0  0  0  0  0  0  0  0  0  0  0
    5.7986   41.5455   49.2832 H   0  0  0  0  0  0  0  0  0  0  0  0
    3.6550   40.9377   50.3969 H   0  0  0  0  0  0  0  0  0  0  0  0
    2.4900   41.6900   53.2470 H   0  0  0  0  0  0  0  0  0  0  0  0
   -0.5104   41.4445   52.4061 H   0  0  0  0  0  0  0  0  0  0  0  0
    0.2031   42.3672   53.7801 H   0  0  0  0  0  0  0  0  0  0  0  0
   -1.9466   42.5764   50.8335 H   0  0  0  0  0  0  0  0  0  0  0  0
   -2.9942   42.6963   52.3042 H   0  0  0  0  0  0  0  0  0  0  0  0
   -2.1310   45.0026   50.4893 H   0  0  0  0  0  0  0  0  0  0  0  0
   -3.7740   44.2706   50.6019 H   0  0  0  0  0  0  0  0  0  0  0  0
   -3.5519   46.4023   51.9122 H   0  0  0  0  0  0  0  0  0  0  0  0
   -3.9769   44.9739   52.9303 H   0  0  0  0  0  0  0  0  0  0  0  0
   -1.9790   46.5460   53.7310 H   0  0  0  0  0  0  0  0  0  0  0  0
    3.9696   44.4408   52.9223 H   0  0  0  0  0  0  0  0  0  0  0  0
  1  2  1  0
  2  3  1  0
  3  4  1  0
  4  5  1  0
  5  6  2  0
  6  7  1  0
  7  8  2  0
  8  9  1  0
  9 10  1  0
 10 11  2  0
 10 12  1  0
 12 13  1  0
 13 14  1  0
 14 15  1  0
 15 16  1  0
 16 17  1  0
 17 18  1  0
 18 19  2  0
  8 20  1  0
 20 21  2  0
 21 22  1  0
 22 23  2  0
 22  2  1  0
 21  5  1  0
 18 13  1  0
  1 24  1  0
  1 25  1  0
  1 26  1  0
  3 27  1  0
  3 28  1  0
  4 29  1  0
  4 30  1  0
  6 31  1  0
  7 32  1  0
  9 33  1  0
 12 34  1  0
 12 35  1  0
 14 36  1  0
 14 37  1  0
 15 38  1  0
 15 39  1  0
 16 40  1  0
 16 41  1  0
 17 42  1  0
 20 43  1  0
M  END
>  <meeko>  (5) 
{"is_sidechain": [false], "free_energy": -7.446, "intermolecular_energy": -8.872, "internal_energy": -0.404}

$$$$
