ligand_99_conformer_3_docked
     RDKit          3D

 47 48  0  0  0  0  0  0  0  0999 V2000
   10.2300   46.1600   51.1680 C   0  0  0  0  0  0  0  0  0  0  0  0
    9.3650   46.5040   52.3530 C   0  0  0  0  0  0  0  0  0  0  0  0
    9.9590   47.1180   53.4660 C   0  0  0  0  0  0  0  0  0  0  0  0
    9.1960   47.4550   54.5830 C   0  0  0  0  0  0  0  0  0  0  0  0
    7.8280   47.2010   54.5960 C   0  0  0  0  0  0  0  0  0  0  0  0
    7.2020   46.5950   53.4980 C   0  0  0  0  0  0  0  0  0  0  0  0
    5.7730   46.4160   53.5310 N   0  0  0  0  0  0  0  0  0  0  0  0
    4.9160   47.5620   53.2180 C   0  0  0  0  0  0  0  0  0  0  0  0
    5.1750   45.2140   54.0640 C   0  0  0  0  0  0  0  0  0  0  0  0
    5.6070   44.7340   55.1470 O   0  0  0  0  0  0  0  0  0  0  0  0
    4.0820   44.5020   53.3720 C   0  0  0  0  0  0  0  0  0  0  0  0
    4.1900   43.6610   52.2830 C   0  0  0  0  0  0  0  0  0  0  0  0
    2.8960   43.2580   52.0280 C   0  0  0  0  0  0  0  0  0  0  0  0
    2.5240   42.3410   50.9010 C   0  0  0  0  0  0  0  0  0  0  0  0
    2.0560   43.8690   52.9090 N   0  0  0  0  0  0  0  0  0  0  0  0
    0.5910   43.7070   53.0860 C   0  0  0  0  0  0  0  0  0  0  0  0
   -0.1820   44.1090   51.8110 C   0  0  0  0  0  0  0  0  0  0  0  0
    0.2770   42.2470   53.4620 C   0  0  0  0  0  0  0  0  0  0  0  0
    0.0970   44.6170   54.2370 C   0  0  0  0  0  0  0  0  0  0  0  0
    2.7910   44.6120   53.7280 N   0  0  0  0  0  0  0  0  0  0  0  0
    7.9800   46.1910   52.3810 C   0  0  0  0  0  0  0  0  0  0  0  0
    7.3350   45.4620   51.2230 C   0  0  0  0  0  0  0  0  0  0  0  0
   11.1983   45.7749   51.5203 H   0  0  0  0  0  0  0  0  0  0  0  0
    9.7297   45.3924   50.5593 H   0  0  0  0  0  0  0  0  0  0  0  0
   10.3935   47.0616   50.5593 H   0  0  0  0  0  0  0  0  0  0  0  0
   11.0372   47.3356   53.4571 H   0  0  0  0  0  0  0  0  0  0  0  0
    9.6761   47.9224   55.4554 H   0  0  0  0  0  0  0  0  0  0  0  0
    7.2314   47.4788   55.4774 H   0  0  0  0  0  0  0  0  0  0  0  0
    4.5688   48.0263   54.1528 H   0  0  0  0  0  0  0  0  0  0  0  0
    5.4871   48.2980   52.6331 H   0  0  0  0  0  0  0  0  0  0  0  0
    4.0486   47.2222   52.6331 H   0  0  0  0  0  0  0  0  0  0  0  0
    5.1033   43.3761   51.7402 H   0  0  0  0  0  0  0  0  0  0  0  0
    2.1401   41.3947   51.3098 H   0  0  0  0  0  0  0  0  0  0  0  0
    1.7473   42.8155   50.2833 H   0  0  0  0  0  0  0  0  0  0  0  0
    3.4118   42.1403   50.2833 H   0  0  0  0  0  0  0  0  0  0  0  0
   -1.1252   44.5995   52.0934 H   0  0  0  0  0  0  0  0  0  0  0  0
    0.4287   44.8037   51.2157 H   0  0  0  0  0  0  0  0  0  0  0  0
   -0.4001   43.2101   51.2157 H   0  0  0  0  0  0  0  0  0  0  0  0
    0.2555   42.1469   54.5572 H   0  0  0  0  0  0  0  0  0  0  0  0
   -0.7025   41.9644   53.0487 H   0  0  0  0  0  0  0  0  0  0  0  0
    1.0537   41.5868   53.0487 H   0  0  0  0  0  0  0  0  0  0  0  0
    0.3479   44.1549   55.2032 H   0  0  0  0  0  0  0  0  0  0  0  0
    0.5854   45.5998   54.1628 H   0  0  0  0  0  0  0  0  0  0  0  0
   -0.9933   44.7428   54.1628 H   0  0  0  0  0  0  0  0  0  0  0  0
    6.6526   44.6907   51.6096 H   0  0  0  0  0  0  0  0  0  0  0  0
    6.7690   46.1777   50.6087 H   0  0  0  0  0  0  0  0  0  0  0  0
    8.1143   44.9874   50.6087 H   0  0  0  0  0  0  0  0  0  0  0  0
  1  2  1  0
  2  3  2  0
  3  4  1  0
  4  5  2  0
  5  6  1  0
  6  7  1  0
  7  8  1  0
  7  9  1  0
  9 10  2  0
  9 11  1  0
 11 12  1  0
 12 13  2  0
 13 14  1  0
 13 15  1  0
 15 16  1  0
 16 17  1  0
 16 18  1  0
 16 19  1  0
 15 20  1  0
  6 21  2  0
 21 22  1  0
 21  2  1  0
 20 11  2  0
  1 23  1  0
  1 24  1  0
  1 25  1  0
  3 26  1  0
  4 27  1  0
  5 28  1  0
  8 29  1  0
  8 30  1  0
  8 31  1  0
 12 32  1  0
 14 33  1  0
 14 34  1  0
 14 35  1  0
 17 36  1  0
 17 37  1  0
 17 38  1  0
 18 39  1  0
 18 40  1  0
 18 41  1  0
 19 42  1  0
 19 43  1  0
 19 44  1  0
 22 45  1  0
 22 46  1  0
 22 47  1  0
M  END
>  <meeko>  (1) 
{"is_sidechain": [false], "free_energy": -8.215, "intermolecular_energy": -10.136, "internal_energy": -0.552}

$$$$
ligand_99_conformer_3_docked
     RDKit          3D

 47 48  0  0  0  0  0  0  0  0999 V2000
   10.1810   46.2660   51.2040 C   0  0  0  0  0  0  0  0  0  0  0  0
    9.3140   46.5930   52.3930 C   0  0  0  0  0  0  0  0  0  0  0  0
    9.9000   47.2220   53.5030 C   0  0  0  0  0  0  0  0  0  0  0  0
    9.1350   47.5440   54.6220 C   0  0  0  0  0  0  0  0  0  0  0  0
    7.7730   47.2600   54.6430 C   0  0  0  0  0  0  0  0  0  0  0  0
    7.1550   46.6390   53.5480 C   0  0  0  0  0  0  0  0  0  0  0  0
    5.7300   46.4290   53.5880 N   0  0  0  0  0  0  0  0  0  0  0  0
    4.8490   47.5120   53.1470 C   0  0  0  0  0  0  0  0  0  0  0  0
    5.1560   45.2760   54.2420 C   0  0  0  0  0  0  0  0  0  0  0  0
    5.9040   44.4900   54.8850 O   0  0  0  0  0  0  0  0  0  0  0  0
    3.7150   44.9630   54.1680 C   0  0  0  0  0  0  0  0  0  0  0  0
    2.7480   45.2480   55.1090 C   0  0  0  0  0  0  0  0  0  0  0  0
    1.5790   44.7570   54.5640 C   0  0  0  0  0  0  0  0  0  0  0  0
    0.2510   44.8260   55.2580 C   0  0  0  0  0  0  0  0  0  0  0  0
    1.8570   44.1720   53.3660 N   0  0  0  0  0  0  0  0  0  0  0  0
    0.9330   43.5690   52.3720 C   0  0  0  0  0  0  0  0  0  0  0  0
    0.1020   42.4240   52.9920 C   0  0  0  0  0  0  0  0  0  0  0  0
    0.0030   44.6580   51.8080 C   0  0  0  0  0  0  0  0  0  0  0  0
    1.7440   42.9710   51.1960 C   0  0  0  0  0  0  0  0  0  0  0  0
    3.1550   44.3150   53.1310 N   0  0  0  0  0  0  0  0  0  0  0  0
    7.9360   46.2500   52.4280 C   0  0  0  0  0  0  0  0  0  0  0  0
    7.3020   45.5060   51.2740 C   0  0  0  0  0  0  0  0  0  0  0  0
   11.1573   45.8978   51.5523 H   0  0  0  0  0  0  0  0  0  0  0  0
    9.6922   45.4904   50.5960 H   0  0  0  0  0  0  0  0  0  0  0  0
   10.3261   47.1712   50.5960 H   0  0  0  0  0  0  0  0  0  0  0  0
   10.9732   47.4629   53.4890 H   0  0  0  0  0  0  0  0  0  0  0  0
    9.6089   48.0239   55.4910 H   0  0  0  0  0  0  0  0  0  0  0  0
    7.1751   47.5252   55.5274 H   0  0  0  0  0  0  0  0  0  0  0  0
    4.4312   48.0256   54.0255 H   0  0  0  0  0  0  0  0  0  0  0  0
    5.4237   48.2288   52.5421 H   0  0  0  0  0  0  0  0  0  0  0  0
    4.0302   47.0953   52.5421 H   0  0  0  0  0  0  0  0  0  0  0  0
    2.8791   45.7535   56.0772 H   0  0  0  0  0  0  0  0  0  0  0  0
    0.4056   44.8180   56.3471 H   0  0  0  0  0  0  0  0  0  0  0  0
   -0.2666   45.7523   54.9679 H   0  0  0  0  0  0  0  0  0  0  0  0
   -0.3598   43.9584   54.9679 H   0  0  0  0  0  0  0  0  0  0  0  0
    0.1492   42.4891   54.0891 H   0  0  0  0  0  0  0  0  0  0  0  0
   -0.9444   42.5113   52.6642 H   0  0  0  0  0  0  0  0  0  0  0  0
    0.5094   41.4562   52.6642 H   0  0  0  0  0  0  0  0  0  0  0  0
   -0.4653   45.2064   52.6386 H   0  0  0  0  0  0  0  0  0  0  0  0
    0.5878   45.3562   51.1912 H   0  0  0  0  0  0  0  0  0  0  0  0
   -0.7781   44.1897   51.1912 H   0  0  0  0  0  0  0  0  0  0  0  0
    2.5699   42.3620   51.5924 H   0  0  0  0  0  0  0  0  0  0  0  0
    1.0861   42.3402   50.5802 H   0  0  0  0  0  0  0  0  0  0  0  0
    2.1521   43.7860   50.5802 H   0  0  0  0  0  0  0  0  0  0  0  0
    6.6350   44.7233   51.6645 H   0  0  0  0  0  0  0  0  0  0  0  0
    6.7213   46.2093   50.6591 H   0  0  0  0  0  0  0  0  0  0  0  0
    8.0885   45.0442   50.6591 H   0  0  0  0  0  0  0  0  0  0  0  0
  1  2  1  0
  2  3  2  0
  3  4  1  0
  4  5  2  0
  5  6  1  0
  6  7  1  0
  7  8  1  0
  7  9  1  0
  9 10  2  0
  9 11  1  0
 11 12  1  0
 12 13  2  0
 13 14  1  0
 13 15  1  0
 15 16  1  0
 16 17  1  0
 16 18  1  0
 16 19  1  0
 15 20  1  0
  6 21  2  0
 21 22  1  0
 21  2  1  0
 20 11  2  0
  1 23  1  0
  1 24  1  0
  1 25  1  0
  3 26  1  0
  4 27  1  0
  5 28  1  0
  8 29  1  0
  8 30  1  0
  8 31  1  0
 12 32  1  0
 14 33  1  0
 14 34  1  0
 14 35  1  0
 17 36  1  0
 17 37  1  0
 17 38  1  0
 18 39  1  0
 18 40  1  0
 18 41  1  0
 19 42  1  0
 19 43  1  0
 19 44  1  0
 22 45  1  0
 22 46  1  0
 22 47  1  0
M  END
>  <meeko>  (2) 
{"is_sidechain": [false], "free_energy": -8.038, "intermolecular_energy": -10.041, "internal_energy": -0.429}

$$$$
ligand_99_conformer_3_docked
     RDKit          3D

 47 48  0  0  0  0  0  0  0  0999 V2000
   -0.1140   42.1300   52.9470 C   0  0  0  0  0  0  0  0  0  0  0  0
    0.4140   43.3030   53.7320 C   0  0  0  0  0  0  0  0  0  0  0  0
   -0.4250   43.9170   54.6750 C   0  0  0  0  0  0  0  0  0  0  0  0
    0.0220   45.0040   55.4230 C   0  0  0  0  0  0  0  0  0  0  0  0
    1.3190   45.4810   55.2550 C   0  0  0  0  0  0  0  0  0  0  0  0
    2.1850   44.8870   54.3260 C   0  0  0  0  0  0  0  0  0  0  0  0
    3.5380   45.3720   54.2370 N   0  0  0  0  0  0  0  0  0  0  0  0
    4.4660   45.0640   55.3270 C   0  0  0  0  0  0  0  0  0  0  0  0
    3.9360   46.3180   53.2200 C   0  0  0  0  0  0  0  0  0  0  0  0
    3.1490   47.2500   52.8980 O   0  0  0  0  0  0  0  0  0  0  0  0
    5.2300   46.2220   52.5150 C   0  0  0  0  0  0  0  0  0  0  0  0
    5.5310   45.4340   51.4250 C   0  0  0  0  0  0  0  0  0  0  0  0
    6.8550   45.7120   51.1520 C   0  0  0  0  0  0  0  0  0  0  0  0
    7.6250   45.0570   50.0440 C   0  0  0  0  0  0  0  0  0  0  0  0
    7.3230   46.6010   52.0710 N   0  0  0  0  0  0  0  0  0  0  0  0
    8.6520   47.2570   52.1610 C   0  0  0  0  0  0  0  0  0  0  0  0
    9.7970   46.2570   51.8910 C   0  0  0  0  0  0  0  0  0  0  0  0
    8.7160   48.4250   51.1590 C   0  0  0  0  0  0  0  0  0  0  0  0
    8.8590   47.8310   53.5830 C   0  0  0  0  0  0  0  0  0  0  0  0
    6.3220   46.9130   52.8860 N   0  0  0  0  0  0  0  0  0  0  0  0
    1.7190   43.8200   53.5140 C   0  0  0  0  0  0  0  0  0  0  0  0
    2.6120   43.2210   52.4500 C   0  0  0  0  0  0  0  0  0  0  0  0
   -0.4642   41.3520   53.6413 H   0  0  0  0  0  0  0  0  0  0  0  0
   -0.9506   42.4596   52.3134 H   0  0  0  0  0  0  0  0  0  0  0  0
    0.6874   41.7223   52.3134 H   0  0  0  0  0  0  0  0  0  0  0  0
   -1.4460   43.5360   54.8250 H   0  0  0  0  0  0  0  0  0  0  0  0
   -0.6509   45.4861   56.1474 H   0  0  0  0  0  0  0  0  0  0  0  0
    1.6680   46.3327   55.8573 H   0  0  0  0  0  0  0  0  0  0  0  0
    3.9657   45.2301   56.2925 H   0  0  0  0  0  0  0  0  0  0  0  0
    4.7818   44.0129   55.2537 H   0  0  0  0  0  0  0  0  0  0  0  0
    5.3476   45.7177   55.2537 H   0  0  0  0  0  0  0  0  0  0  0  0
    4.8652   44.7392   50.8921 H   0  0  0  0  0  0  0  0  0  0  0  0
    8.3968   44.4005   50.4721 H   0  0  0  0  0  0  0  0  0  0  0  0
    6.9395   44.4610   49.4236 H   0  0  0  0  0  0  0  0  0  0  0  0
    8.1034   45.8292   49.4236 H   0  0  0  0  0  0  0  0  0  0  0  0
   10.2055   45.9002   52.8480 H   0  0  0  0  0  0  0  0  0  0  0  0
    9.4098   45.4027   51.3163 H   0  0  0  0  0  0  0  0  0  0  0  0
   10.5914   46.7556   51.3163 H   0  0  0  0  0  0  0  0  0  0  0  0
    8.7681   49.3767   51.7081 H   0  0  0  0  0  0  0  0  0  0  0  0
    9.6096   48.3171   50.5266 H   0  0  0  0  0  0  0  0  0  0  0  0
    7.8160   48.4154   50.5266 H   0  0  0  0  0  0  0  0  0  0  0  0
    8.5847   47.0705   54.3289 H   0  0  0  0  0  0  0  0  0  0  0  0
    9.9146   48.1106   53.7155 H   0  0  0  0  0  0  0  0  0  0  0  0
    8.2248   48.7200   53.7155 H   0  0  0  0  0  0  0  0  0  0  0  0
    3.4342   42.6695   52.9293 H   0  0  0  0  0  0  0  0  0  0  0  0
    2.0252   42.5331   51.8235 H   0  0  0  0  0  0  0  0  0  0  0  0
    3.0259   44.0249   51.8235 H   0  0  0  0  0  0  0  0  0  0  0  0
  1  2  1  0
  2  3  2  0
  3  4  1  0
  4  5  2  0
  5  6  1  0
  6  7  1  0
  7  8  1  0
  7  9  1  0
  9 10  2  0
  9 11  1  0
 11 12  1  0
 12 13  2  0
 13 14  1  0
 13 15  1  0
 15 16  1  0
 16 17  1  0
 16 18  1  0
 16 19  1  0
 15 20  1  0
  6 21  2  0
 21 22  1  0
 21  2  1  0
 20 11  2  0
  1 23  1  0
  1 24  1  0
  1 25  1  0
  3 26  1  0
  4 27  1  0
  5 28  1  0
  8 29  1  0
  8 30  1  0
  8 31  1  0
 12 32  1  0
 14 33  1  0
 14 34  1  0
 14 35  1  0
 17 36  1  0
 17 37  1  0
 17 38  1  0
 18 39  1  0
 18 40  1  0
 18 41  1  0
 19 42  1  0
 19 43  1  0
 19 44  1  0
 22 45  1  0
 22 46  1  0
 22 47  1  0
M  END
>  <meeko>  (3) 
{"is_sidechain": [false], "free_energy": -7.904, "intermolecular_energy": -9.916, "internal_energy": -0.388}

$$$$
ligand_99_conformer_3_docked
     RDKit          3D

 47 48  0  0  0  0  0  0  0  0999 V2000
   -1.3160   43.5350   54.9450 C   0  0  0  0  0  0  0  0  0  0  0  0
   -0.1560   43.5900   53.9850 C   0  0  0  0  0  0  0  0  0  0  0  0
   -0.1290   42.6910   52.9080 C   0  0  0  0  0  0  0  0  0  0  0  0
    0.9240   42.7070   51.9950 C   0  0  0  0  0  0  0  0  0  0  0  0
    1.9540   43.6330   52.1340 C   0  0  0  0  0  0  0  0  0  0  0  0
    1.9540   44.5490   53.1940 C   0  0  0  0  0  0  0  0  0  0  0  0
    3.0050   45.5330   53.2560 N   0  0  0  0  0  0  0  0  0  0  0  0
    2.7820   46.8380   52.6310 C   0  0  0  0  0  0  0  0  0  0  0  0
    4.3290   45.1930   53.7250 C   0  0  0  0  0  0  0  0  0  0  0  0
    4.4730   44.7050   54.8790 O   0  0  0  0  0  0  0  0  0  0  0  0
    5.5380   45.4200   52.9080 C   0  0  0  0  0  0  0  0  0  0  0  0
    5.8240   44.8810   51.6700 C   0  0  0  0  0  0  0  0  0  0  0  0
    7.0570   45.4050   51.3420 C   0  0  0  0  0  0  0  0  0  0  0  0
    7.7830   45.0720   50.0720 C   0  0  0  0  0  0  0  0  0  0  0  0
    7.4950   46.1900   52.3640 N   0  0  0  0  0  0  0  0  0  0  0  0
    8.7210   47.0230   52.4580 C   0  0  0  0  0  0  0  0  0  0  0  0
    9.9860   46.2100   52.1060 C   0  0  0  0  0  0  0  0  0  0  0  0
    8.5900   48.2370   51.5200 C   0  0  0  0  0  0  0  0  0  0  0  0
    8.8910   47.5470   53.9050 C   0  0  0  0  0  0  0  0  0  0  0  0
    6.5580   46.2010   53.3040 N   0  0  0  0  0  0  0  0  0  0  0  0
    0.9190   44.5000   54.1650 C   0  0  0  0  0  0  0  0  0  0  0  0
    0.9470   45.4260   55.3610 C   0  0  0  0  0  0  0  0  0  0  0  0
   -0.9383   43.5529   55.9780 H   0  0  0  0  0  0  0  0  0  0  0  0
   -1.9708   44.4031   54.7790 H   0  0  0  0  0  0  0  0  0  0  0  0
   -1.8858   42.6088   54.7790 H   0  0  0  0  0  0  0  0  0  0  0  0
   -0.9471   41.9663   52.7830 H   0  0  0  0  0  0  0  0  0  0  0  0
    0.9411   41.9870   51.1636 H   0  0  0  0  0  0  0  0  0  0  0  0
    2.7766   43.6457   51.4038 H   0  0  0  0  0  0  0  0  0  0  0  0
    2.6516   47.6012   53.4123 H   0  0  0  0  0  0  0  0  0  0  0  0
    3.6487   47.0979   52.0055 H   0  0  0  0  0  0  0  0  0  0  0  0
    1.8781   46.7954   52.0055 H   0  0  0  0  0  0  0  0  0  0  0  0
    5.2071   44.1890   51.0779 H   0  0  0  0  0  0  0  0  0  0  0  0
    8.7584   44.6246   50.3137 H   0  0  0  0  0  0  0  0  0  0  0  0
    7.1870   44.3573   49.4855 H   0  0  0  0  0  0  0  0  0  0  0  0
    7.9359   45.9900   49.4855 H   0  0  0  0  0  0  0  0  0  0  0  0
   10.4852   45.8892   53.0322 H   0  0  0  0  0  0  0  0  0  0  0  0
    9.7013   45.3253   51.5175 H   0  0  0  0  0  0  0  0  0  0  0  0
   10.6725   46.8364   51.5175 H   0  0  0  0  0  0  0  0  0  0  0  0
    8.4910   49.1542   52.1191 H   0  0  0  0  0  0  0  0  0  0  0  0
    9.4857   48.3084   50.8854 H   0  0  0  0  0  0  0  0  0  0  0  0
    7.6997   48.1157   50.8854 H   0  0  0  0  0  0  0  0  0  0  0  0
    8.6322   46.7492   54.6167 H   0  0  0  0  0  0  0  0  0  0  0  0
    9.9351   47.8549   54.0632 H   0  0  0  0  0  0  0  0  0  0  0  0
    8.2265   48.4092   54.0632 H   0  0  0  0  0  0  0  0  0  0  0  0
    0.9290   44.8309   56.2860 H   0  0  0  0  0  0  0  0  0  0  0  0
    1.8639   46.0330   55.3333 H   0  0  0  0  0  0  0  0  0  0  0  0
    0.0684   46.0873   55.3333 H   0  0  0  0  0  0  0  0  0  0  0  0
  1  2  1  0
  2  3  2  0
  3  4  1  0
  4  5  2  0
  5  6  1  0
  6  7  1  0
  7  8  1  0
  7  9  1  0
  9 10  2  0
  9 11  1  0
 11 12  1  0
 12 13  2  0
 13 14  1  0
 13 15  1  0
 15 16  1  0
 16 17  1  0
 16 18  1  0
 16 19  1  0
 15 20  1  0
  6 21  2  0
 21 22  1  0
 21  2  1  0
 20 11  2  0
  1 23  1  0
  1 24  1  0
  1 25  1  0
  3 26  1  0
  4 27  1  0
  5 28  1  0
  8 29  1  0
  8 30  1  0
  8 31  1  0
 12 32  1  0
 14 33  1  0
 14 34  1  0
 14 35  1  0
 17 36  1  0
 17 37  1  0
 17 38  1  0
 18 39  1  0
 18 40  1  0
 18 41  1  0
 19 42  1  0
 19 43  1  0
 19 44  1  0
 22 45  1  0
 22 46  1  0
 22 47  1  0
M  END
>  <meeko>  (4) 
{"is_sidechain": [false], "free_energy": -7.831, "intermolecular_energy": -9.659, "internal_energy": -0.555}

$$$$
ligand_99_conformer_3_docked
     RDKit          3D

 47 48  0  0  0  0  0  0  0  0999 V2000
    9.6480   46.9350   51.8450 C   0  0  0  0  0  0  0  0  0  0  0  0
    8.2870   46.2890   51.8770 C   0  0  0  0  0  0  0  0  0  0  0  0
    7.8050   45.6700   50.7130 C   0  0  0  0  0  0  0  0  0  0  0  0
    6.5530   45.0600   50.6990 C   0  0  0  0  0  0  0  0  0  0  0  0
    5.7710   45.0420   51.8500 C   0  0  0  0  0  0  0  0  0  0  0  0
    6.2250   45.6460   53.0320 C   0  0  0  0  0  0  0  0  0  0  0  0
    5.4110   45.5410   54.2160 N   0  0  0  0  0  0  0  0  0  0  0  0
    5.7040   44.4750   55.1760 C   0  0  0  0  0  0  0  0  0  0  0  0
    4.2010   46.3160   54.3700 C   0  0  0  0  0  0  0  0  0  0  0  0
    4.2810   47.5540   54.5990 O   0  0  0  0  0  0  0  0  0  0  0  0
    2.8580   45.7060   54.2940 C   0  0  0  0  0  0  0  0  0  0  0  0
    1.9020   45.6650   55.2880 C   0  0  0  0  0  0  0  0  0  0  0  0
    0.8400   44.9940   54.7170 C   0  0  0  0  0  0  0  0  0  0  0  0
   -0.4350   44.6930   55.4470 C   0  0  0  0  0  0  0  0  0  0  0  0
    1.1750   44.6230   53.4500 N   0  0  0  0  0  0  0  0  0  0  0  0
    0.3530   43.9480   52.4140 C   0  0  0  0  0  0  0  0  0  0  0  0
   -0.1710   42.5810   52.9080 C   0  0  0  0  0  0  0  0  0  0  0  0
   -0.8250   44.8580   52.0190 C   0  0  0  0  0  0  0  0  0  0  0  0
    1.2080   43.6900   51.1500 C   0  0  0  0  0  0  0  0  0  0  0  0
    2.3990   45.0720   53.2010 N   0  0  0  0  0  0  0  0  0  0  0  0
    7.4720   46.3250   53.0400 C   0  0  0  0  0  0  0  0  0  0  0  0
    7.9390   47.0520   54.2810 C   0  0  0  0  0  0  0  0  0  0  0  0
    9.9991   47.1016   52.8741 H   0  0  0  0  0  0  0  0  0  0  0  0
   10.3544   46.2761   51.3188 H   0  0  0  0  0  0  0  0  0  0  0  0
    9.5841   47.8989   51.3188 H   0  0  0  0  0  0  0  0  0  0  0  0
    8.4224   45.6667   49.8026 H   0  0  0  0  0  0  0  0  0  0  0  0
    6.1814   44.5913   49.7759 H   0  0  0  0  0  0  0  0  0  0  0  0
    4.7876   44.5495   51.8328 H   0  0  0  0  0  0  0  0  0  0  0  0
    5.5972   44.8637   56.1995 H   0  0  0  0  0  0  0  0  0  0  0  0
    5.0015   43.6422   55.0249 H   0  0  0  0  0  0  0  0  0  0  0  0
    6.7335   44.1182   55.0249 H   0  0  0  0  0  0  0  0  0  0  0  0
    1.9709   46.0749   56.3064 H   0  0  0  0  0  0  0  0  0  0  0  0
   -0.2554   44.7354   56.5314 H   0  0  0  0  0  0  0  0  0  0  0  0
   -1.1987   45.4355   55.1725 H   0  0  0  0  0  0  0  0  0  0  0  0
   -0.7860   43.6873   55.1725 H   0  0  0  0  0  0  0  0  0  0  0  0
   -0.1767   42.5662   54.0079 H   0  0  0  0  0  0  0  0  0  0  0  0
   -1.1933   42.4233   52.5339 H   0  0  0  0  0  0  0  0  0  0  0  0
    0.4840   41.7803   52.5339 H   0  0  0  0  0  0  0  0  0  0  0  0
   -1.3160   45.2373   52.9274 H   0  0  0  0  0  0  0  0  0  0  0  0
   -0.4511   45.7041   51.4238 H   0  0  0  0  0  0  0  0  0  0  0  0
   -1.5493   44.2826   51.4238 H   0  0  0  0  0  0  0  0  0  0  0  0
    2.2214   43.3842   51.4490 H   0  0  0  0  0  0  0  0  0  0  0  0
    0.7457   42.8914   50.5513 H   0  0  0  0  0  0  0  0  0  0  0  0
    1.2646   44.6111   50.5513 H   0  0  0  0  0  0  0  0  0  0  0  0
    7.5922   46.5122   55.1745 H   0  0  0  0  0  0  0  0  0  0  0  0
    9.0379   47.1009   54.2856 H   0  0  0  0  0  0  0  0  0  0  0  0
    7.5266   48.0717   54.2856 H   0  0  0  0  0  0  0  0  0  0  0  0
  1  2  1  0
  2  3  2  0
  3  4  1  0
  4  5  2  0
  5  6  1  0
  6  7  1  0
  7  8  1  0
  7  9  1  0
  9 10  2  0
  9 11  1  0
 11 12  1  0
 12 13  2  0
 13 14  1  0
 13 15  1  0
 15 16  1  0
 16 17  1  0
 16 18  1  0
 16 19  1  0
 15 20  1  0
  6 21  2  0
 21 22  1  0
 21  2  1  0
 20 11  2  0
  1 23  1  0
  1 24  1  0
  1 25  1  0
  3 26  1  0
  4 27  1  0
  5 28  1  0
  8 29  1  0
  8 30  1  0
  8 31  1  0
 12 32  1  0
 14 33  1  0
 14 34  1  0
 14 35  1  0
 17 36  1  0
 17 37  1  0
 17 38  1  0
 18 39  1  0
 18 40  1  0
 18 41  1  0
 19 42  1  0
 19 43  1  0
 19 44  1  0
 22 45  1  0
 22 46  1  0
 22 47  1  0
M  END
>  <meeko>  (5) 
{"is_sidechain": [false], "free_energy": -7.823, "intermolecular_energy": -9.592, "internal_energy": -0.612}

$$$$
