ligand_99_conformer_5_docked
     RDKit          3D

 47 48  0  0  0  0  0  0  0  0999 V2000
   10.3280   46.0060   51.3410 C   0  0  0  0  0  0  0  0  0  0  0  0
    9.4250   46.4410   52.4660 C   0  0  0  0  0  0  0  0  0  0  0  0
    9.9930   47.0780   53.5830 C   0  0  0  0  0  0  0  0  0  0  0  0
    9.1950   47.4870   54.6490 C   0  0  0  0  0  0  0  0  0  0  0  0
    7.8210   47.2650   54.6200 C   0  0  0  0  0  0  0  0  0  0  0  0
    7.2260   46.6440   53.5140 C   0  0  0  0  0  0  0  0  0  0  0  0
    5.8110   46.4050   53.5330 N   0  0  0  0  0  0  0  0  0  0  0  0
    4.9140   47.4830   53.1150 C   0  0  0  0  0  0  0  0  0  0  0  0
    5.3190   45.1190   53.9670 C   0  0  0  0  0  0  0  0  0  0  0  0
    5.8330   44.5700   54.9790 O   0  0  0  0  0  0  0  0  0  0  0  0
    4.2070   44.4310   53.2800 C   0  0  0  0  0  0  0  0  0  0  0  0
    4.3320   43.5640   52.2160 C   0  0  0  0  0  0  0  0  0  0  0  0
    3.0400   43.1600   51.9430 C   0  0  0  0  0  0  0  0  0  0  0  0
    2.6900   42.1810   50.8620 C   0  0  0  0  0  0  0  0  0  0  0  0
    2.1940   43.7420   52.8380 N   0  0  0  0  0  0  0  0  0  0  0  0
    0.7120   43.6760   52.9230 C   0  0  0  0  0  0  0  0  0  0  0  0
    0.2280   42.2410   53.2280 C   0  0  0  0  0  0  0  0  0  0  0  0
    0.0980   44.1780   51.6040 C   0  0  0  0  0  0  0  0  0  0  0  0
    0.2120   44.5900   54.0680 C   0  0  0  0  0  0  0  0  0  0  0  0
    2.9130   44.5220   53.6350 N   0  0  0  0  0  0  0  0  0  0  0  0
    8.0200   46.2500   52.4100 C   0  0  0  0  0  0  0  0  0  0  0  0
    7.3800   45.5770   51.2170 C   0  0  0  0  0  0  0  0  0  0  0  0
   11.2454   45.5641   51.7571 H   0  0  0  0  0  0  0  0  0  0  0  0
    9.8091   45.2590   50.7223 H   0  0  0  0  0  0  0  0  0  0  0  0
   10.5887   46.8773   50.7223 H   0  0  0  0  0  0  0  0  0  0  0  0
   11.0781   47.2552   53.6156 H   0  0  0  0  0  0  0  0  0  0  0  0
    9.6517   47.9867   55.5160 H   0  0  0  0  0  0  0  0  0  0  0  0
    7.1985   47.5791   55.4708 H   0  0  0  0  0  0  0  0  0  0  0  0
    4.4998   47.9808   54.0041 H   0  0  0  0  0  0  0  0  0  0  0  0
    5.4744   48.2137   52.5133 H   0  0  0  0  0  0  0  0  0  0  0  0
    4.0936   47.0648   52.5133 H   0  0  0  0  0  0  0  0  0  0  0  0
    5.2549   43.2614   51.6995 H   0  0  0  0  0  0  0  0  0  0  0  0
    2.3528   41.2378   51.3166 H   0  0  0  0  0  0  0  0  0  0  0  0
    1.8845   42.5959   50.2383 H   0  0  0  0  0  0  0  0  0  0  0  0
    3.5760   41.9912   50.2383 H   0  0  0  0  0  0  0  0  0  0  0  0
    0.1786   42.0944   54.3171 H   0  0  0  0  0  0  0  0  0  0  0  0
   -0.7706   42.0904   52.7921 H   0  0  0  0  0  0  0  0  0  0  0  0
    0.9314   41.5164   52.7921 H   0  0  0  0  0  0  0  0  0  0  0  0
   -0.7364   44.8602   51.8242 H   0  0  0  0  0  0  0  0  0  0  0  0
    0.8643   44.7116   51.0226 H   0  0  0  0  0  0  0  0  0  0  0  0
   -0.2727   43.3210   51.0226 H   0  0  0  0  0  0  0  0  0  0  0  0
    0.4617   44.1335   55.0372 H   0  0  0  0  0  0  0  0  0  0  0  0
    0.6974   45.5740   53.9902 H   0  0  0  0  0  0  0  0  0  0  0  0
   -0.8785   44.7119   53.9902 H   0  0  0  0  0  0  0  0  0  0  0  0
    6.6608   44.8208   51.5647 H   0  0  0  0  0  0  0  0  0  0  0  0
    6.8559   46.3292   50.6091 H   0  0  0  0  0  0  0  0  0  0  0  0
    8.1576   45.0914   50.6091 H   0  0  0  0  0  0  0  0  0  0  0  0
  1  2  1  0
  2  3  2  0
  3  4  1  0
  4  5  2  0
  5  6  1  0
  6  7  1  0
  7  8  1  0
  7  9  1  0
  9 10  2  0
  9 11  1  0
 11 12  1  0
 12 13  2  0
 13 14  1  0
 13 15  1  0
 15 16  1  0
 16 17  1  0
 16 18  1  0
 16 19  1  0
 15 20  1  0
  6 21  2  0
 21 22  1  0
 21  2  1  0
 20 11  2  0
  1 23  1  0
  1 24  1  0
  1 25  1  0
  3 26  1  0
  4 27  1  0
  5 28  1  0
  8 29  1  0
  8 30  1  0
  8 31  1  0
 12 32  1  0
 14 33  1  0
 14 34  1  0
 14 35  1  0
 17 36  1  0
 17 37  1  0
 17 38  1  0
 18 39  1  0
 18 40  1  0
 18 41  1  0
 19 42  1  0
 19 43  1  0
 19 44  1  0
 22 45  1  0
 22 46  1  0
 22 47  1  0
M  END
>  <meeko>  (1) 
{"is_sidechain": [false], "free_energy": -8.44, "intermolecular_energy": -10.413, "internal_energy": -0.494}

$$$$
ligand_99_conformer_5_docked
     RDKit          3D

 47 48  0  0  0  0  0  0  0  0999 V2000
    9.9630   45.8180   51.2380 C   0  0  0  0  0  0  0  0  0  0  0  0
    9.2100   46.3710   52.4200 C   0  0  0  0  0  0  0  0  0  0  0  0
    9.9290   47.0170   53.4390 C   0  0  0  0  0  0  0  0  0  0  0  0
    9.2720   47.5340   54.5540 C   0  0  0  0  0  0  0  0  0  0  0  0
    7.8910   47.4110   54.6700 C   0  0  0  0  0  0  0  0  0  0  0  0
    7.1470   46.7830   53.6630 C   0  0  0  0  0  0  0  0  0  0  0  0
    5.7280   46.6490   53.8330 N   0  0  0  0  0  0  0  0  0  0  0  0
    4.8620   47.7350   53.3700 C   0  0  0  0  0  0  0  0  0  0  0  0
    5.2010   45.4590   54.4580 C   0  0  0  0  0  0  0  0  0  0  0  0
    5.9600   44.7480   55.1730 O   0  0  0  0  0  0  0  0  0  0  0  0
    3.7880   45.0540   54.3120 C   0  0  0  0  0  0  0  0  0  0  0  0
    2.7750   45.3320   55.2030 C   0  0  0  0  0  0  0  0  0  0  0  0
    1.6450   44.7830   54.6290 C   0  0  0  0  0  0  0  0  0  0  0  0
    0.2800   44.8660   55.2450 C   0  0  0  0  0  0  0  0  0  0  0  0
    1.9800   44.2340   53.4270 N   0  0  0  0  0  0  0  0  0  0  0  0
    1.1400   43.4740   52.4660 C   0  0  0  0  0  0  0  0  0  0  0  0
    0.1540   44.4010   51.7220 C   0  0  0  0  0  0  0  0  0  0  0  0
    0.3740   42.3690   53.2150 C   0  0  0  0  0  0  0  0  0  0  0  0
    2.0410   42.8020   51.4010 C   0  0  0  0  0  0  0  0  0  0  0  0
    3.2850   44.3940   53.2530 N   0  0  0  0  0  0  0  0  0  0  0  0
    7.7960   46.2800   52.5110 C   0  0  0  0  0  0  0  0  0  0  0  0
    6.9950   45.5990   51.4250 C   0  0  0  0  0  0  0  0  0  0  0  0
   10.8020   45.2018   51.5934 H   0  0  0  0  0  0  0  0  0  0  0  0
    9.2867   45.2003   50.6288 H   0  0  0  0  0  0  0  0  0  0  0  0
   10.3500   46.6481   50.6288 H   0  0  0  0  0  0  0  0  0  0  0  0
   11.0214   47.1158   53.3562 H   0  0  0  0  0  0  0  0  0  0  0  0
    9.8463   48.0403   55.3438 H   0  0  0  0  0  0  0  0  0  0  0  0
    7.3799   47.8097   55.5587 H   0  0  0  0  0  0  0  0  0  0  0  0
    4.4407   48.2634   54.2379 H   0  0  0  0  0  0  0  0  0  0  0  0
    5.4496   48.4387   52.7621 H   0  0  0  0  0  0  0  0  0  0  0  0
    4.0451   47.3188   52.7621 H   0  0  0  0  0  0  0  0  0  0  0  0
    2.8494   45.8712   56.1589 H   0  0  0  0  0  0  0  0  0  0  0  0
    0.3715   44.8604   56.3412 H   0  0  0  0  0  0  0  0  0  0  0  0
   -0.2118   45.7957   54.9228 H   0  0  0  0  0  0  0  0  0  0  0  0
   -0.3208   44.0027   54.9228 H   0  0  0  0  0  0  0  0  0  0  0  0
   -0.4441   44.9633   52.4542 H   0  0  0  0  0  0  0  0  0  0  0  0
    0.7171   45.1043   51.0910 H   0  0  0  0  0  0  0  0  0  0  0  0
   -0.5133   43.7956   51.0910 H   0  0  0  0  0  0  0  0  0  0  0  0
    0.4790   42.5205   54.2994 H   0  0  0  0  0  0  0  0  0  0  0  0
   -0.6904   42.4100   52.9404 H   0  0  0  0  0  0  0  0  0  0  0  0
    0.7859   41.3867   52.9404 H   0  0  0  0  0  0  0  0  0  0  0  0
    2.8261   42.2164   51.9016 H   0  0  0  0  0  0  0  0  0  0  0  0
    1.4315   42.1361   50.7724 H   0  0  0  0  0  0  0  0  0  0  0  0
    2.5054   43.5760   50.7724 H   0  0  0  0  0  0  0  0  0  0  0  0
    6.2330   44.9512   51.8829 H   0  0  0  0  0  0  0  0  0  0  0  0
    6.5028   46.3594   50.8009 H   0  0  0  0  0  0  0  0  0  0  0  0
    7.6663   44.9909   50.8009 H   0  0  0  0  0  0  0  0  0  0  0  0
  1  2  1  0
  2  3  2  0
  3  4  1  0
  4  5  2  0
  5  6  1  0
  6  7  1  0
  7  8  1  0
  7  9  1  0
  9 10  2  0
  9 11  1  0
 11 12  1  0
 12 13  2  0
 13 14  1  0
 13 15  1  0
 15 16  1  0
 16 17  1  0
 16 18  1  0
 16 19  1  0
 15 20  1  0
  6 21  2  0
 21 22  1  0
 21  2  1  0
 20 11  2  0
  1 23  1  0
  1 24  1  0
  1 25  1  0
  3 26  1  0
  4 27  1  0
  5 28  1  0
  8 29  1  0
  8 30  1  0
  8 31  1  0
 12 32  1  0
 14 33  1  0
 14 34  1  0
 14 35  1  0
 17 36  1  0
 17 37  1  0
 17 38  1  0
 18 39  1  0
 18 40  1  0
 18 41  1  0
 19 42  1  0
 19 43  1  0
 19 44  1  0
 22 45  1  0
 22 46  1  0
 22 47  1  0
M  END
>  <meeko>  (2) 
{"is_sidechain": [false], "free_energy": -8.117, "intermolecular_energy": -10.171, "internal_energy": -0.339}

$$$$
ligand_99_conformer_5_docked
     RDKit          3D

 47 48  0  0  0  0  0  0  0  0999 V2000
    9.9320   46.6760   52.1930 C   0  0  0  0  0  0  0  0  0  0  0  0
    8.4790   46.3400   51.9780 C   0  0  0  0  0  0  0  0  0  0  0  0
    8.0910   45.7590   50.7590 C   0  0  0  0  0  0  0  0  0  0  0  0
    6.7560   45.4420   50.5160 C   0  0  0  0  0  0  0  0  0  0  0  0
    5.7890   45.7030   51.4830 C   0  0  0  0  0  0  0  0  0  0  0  0
    6.1490   46.2700   52.7120 C   0  0  0  0  0  0  0  0  0  0  0  0
    5.1190   46.5530   53.6710 N   0  0  0  0  0  0  0  0  0  0  0  0
    4.6590   47.9350   53.8170 C   0  0  0  0  0  0  0  0  0  0  0  0
    4.5780   45.4750   54.4630 C   0  0  0  0  0  0  0  0  0  0  0  0
    5.2890   44.9510   55.3640 O   0  0  0  0  0  0  0  0  0  0  0  0
    3.1990   44.9770   54.2750 C   0  0  0  0  0  0  0  0  0  0  0  0
    2.1570   45.1370   55.1610 C   0  0  0  0  0  0  0  0  0  0  0  0
    1.0780   44.5370   54.5440 C   0  0  0  0  0  0  0  0  0  0  0  0
   -0.2970   44.4900   55.1400 C   0  0  0  0  0  0  0  0  0  0  0  0
    1.4680   44.0720   53.3230 N   0  0  0  0  0  0  0  0  0  0  0  0
    0.6990   43.3010   52.3130 C   0  0  0  0  0  0  0  0  0  0  0  0
   -0.0640   42.1240   52.9610 C   0  0  0  0  0  0  0  0  0  0  0  0
    1.6540   42.7830   51.2230 C   0  0  0  0  0  0  0  0  0  0  0  0
   -0.3500   44.2200   51.6400 C   0  0  0  0  0  0  0  0  0  0  0  0
    2.7600   44.3340   53.1780 N   0  0  0  0  0  0  0  0  0  0  0  0
    7.5050   46.5690   52.9850 C   0  0  0  0  0  0  0  0  0  0  0  0
    7.8950   47.1850   54.3100 C   0  0  0  0  0  0  0  0  0  0  0  0
   10.1414   46.7244   53.2718 H   0  0  0  0  0  0  0  0  0  0  0  0
   10.5600   45.8994   51.7321 H   0  0  0  0  0  0  0  0  0  0  0  0
   10.1553   47.6495   51.7321 H   0  0  0  0  0  0  0  0  0  0  0  0
    8.8486   45.5523   49.9888 H   0  0  0  0  0  0  0  0  0  0  0  0
    6.4657   44.9848   49.5586 H   0  0  0  0  0  0  0  0  0  0  0  0
    4.7350   45.4622   51.2804 H   0  0  0  0  0  0  0  0  0  0  0  0
    4.5764   48.1830   54.8855 H   0  0  0  0  0  0  0  0  0  0  0  0
    5.3796   48.6139   53.3376 H   0  0  0  0  0  0  0  0  0  0  0  0
    3.6753   48.0466   53.3376 H   0  0  0  0  0  0  0  0  0  0  0  0
    2.1796   45.6329   56.1426 H   0  0  0  0  0  0  0  0  0  0  0  0
   -0.2212   44.4926   56.2374 H   0  0  0  0  0  0  0  0  0  0  0  0
   -0.8699   45.3691   54.8099 H   0  0  0  0  0  0  0  0  0  0  0  0
   -0.8086   43.5738   54.8099 H   0  0  0  0  0  0  0  0  0  0  0  0
   -0.0085   42.2097   54.0563 H   0  0  0  0  0  0  0  0  0  0  0  0
   -1.1170   42.1508   52.6440 H   0  0  0  0  0  0  0  0  0  0  0  0
    0.3903   41.1737   52.6440 H   0  0  0  0  0  0  0  0  0  0  0  0
    2.5272   42.3094   51.6954 H   0  0  0  0  0  0  0  0  0  0  0  0
    1.1305   42.0452   50.5972 H   0  0  0  0  0  0  0  0  0  0  0  0
    1.9869   43.6242   50.5972 H   0  0  0  0  0  0  0  0  0  0  0  0
   -0.9374   44.7346   52.4147 H   0  0  0  0  0  0  0  0  0  0  0  0
    0.1630   44.9647   51.0136 H   0  0  0  0  0  0  0  0  0  0  0  0
   -1.0207   43.6135   51.0136 H   0  0  0  0  0  0  0  0  0  0  0  0
    7.5035   46.5667   55.1312 H   0  0  0  0  0  0  0  0  0  0  0  0
    8.9914   47.2378   54.3813 H   0  0  0  0  0  0  0  0  0  0  0  0
    7.4737   48.1986   54.3813 H   0  0  0  0  0  0  0  0  0  0  0  0
  1  2  1  0
  2  3  2  0
  3  4  1  0
  4  5  2  0
  5  6  1  0
  6  7  1  0
  7  8  1  0
  7  9  1  0
  9 10  2  0
  9 11  1  0
 11 12  1  0
 12 13  2  0
 13 14  1  0
 13 15  1  0
 15 16  1  0
 16 17  1  0
 16 18  1  0
 16 19  1  0
 15 20  1  0
  6 21  2  0
 21 22  1  0
 21  2  1  0
 20 11  2  0
  1 23  1  0
  1 24  1  0
  1 25  1  0
  3 26  1  0
  4 27  1  0
  5 28  1  0
  8 29  1  0
  8 30  1  0
  8 31  1  0
 12 32  1  0
 14 33  1  0
 14 34  1  0
 14 35  1  0
 17 36  1  0
 17 37  1  0
 17 38  1  0
 18 39  1  0
 18 40  1  0
 18 41  1  0
 19 42  1  0
 19 43  1  0
 19 44  1  0
 22 45  1  0
 22 46  1  0
 22 47  1  0
M  END
>  <meeko>  (3) 
{"is_sidechain": [false], "free_energy": -7.951, "intermolecular_energy": -9.874, "internal_energy": -0.431}

$$$$
ligand_99_conformer_5_docked
     RDKit          3D

 47 48  0  0  0  0  0  0  0  0999 V2000
   -0.1090   42.2590   52.7520 C   0  0  0  0  0  0  0  0  0  0  0  0
    0.4280   43.3510   53.6400 C   0  0  0  0  0  0  0  0  0  0  0  0
   -0.4310   43.9420   54.5820 C   0  0  0  0  0  0  0  0  0  0  0  0
    0.0230   44.9620   55.4160 C   0  0  0  0  0  0  0  0  0  0  0  0
    1.3370   45.4090   55.3210 C   0  0  0  0  0  0  0  0  0  0  0  0
    2.2190   44.8300   54.4000 C   0  0  0  0  0  0  0  0  0  0  0  0
    3.5590   45.3380   54.3100 N   0  0  0  0  0  0  0  0  0  0  0  0
    4.5250   44.9490   55.3390 C   0  0  0  0  0  0  0  0  0  0  0  0
    3.9080   46.2180   53.2200 C   0  0  0  0  0  0  0  0  0  0  0  0
    3.0770   47.0850   52.8340 O   0  0  0  0  0  0  0  0  0  0  0  0
    5.2250   46.1580   52.5530 C   0  0  0  0  0  0  0  0  0  0  0  0
    5.5470   45.3600   51.4780 C   0  0  0  0  0  0  0  0  0  0  0  0
    6.8620   45.6700   51.1950 C   0  0  0  0  0  0  0  0  0  0  0  0
    7.6350   45.0520   50.0680 C   0  0  0  0  0  0  0  0  0  0  0  0
    7.2830   46.6410   52.0530 N   0  0  0  0  0  0  0  0  0  0  0  0
    8.6250   47.2620   52.1960 C   0  0  0  0  0  0  0  0  0  0  0  0
    9.7520   46.2390   51.9290 C   0  0  0  0  0  0  0  0  0  0  0  0
    8.7690   47.8590   53.6070 C   0  0  0  0  0  0  0  0  0  0  0  0
    8.7840   48.4090   51.1670 C   0  0  0  0  0  0  0  0  0  0  0  0
    6.2850   46.9190   52.8810 N   0  0  0  0  0  0  0  0  0  0  0  0
    1.7820   43.7720   53.5680 C   0  0  0  0  0  0  0  0  0  0  0  0
    2.7310   43.1480   52.5710 C   0  0  0  0  0  0  0  0  0  0  0  0
   -0.5095   41.4446   53.3736 H   0  0  0  0  0  0  0  0  0  0  0  0
   -0.9108   42.6638   52.1170 H   0  0  0  0  0  0  0  0  0  0  0  0
    0.7011   41.8712   52.1170 H   0  0  0  0  0  0  0  0  0  0  0  0
   -1.4721   43.5961   54.6619 H   0  0  0  0  0  0  0  0  0  0  0  0
   -0.6590   45.4146   56.1509 H   0  0  0  0  0  0  0  0  0  0  0  0
    1.6856   46.2228   55.9738 H   0  0  0  0  0  0  0  0  0  0  0  0
    4.0908   45.1239   56.3344 H   0  0  0  0  0  0  0  0  0  0  0  0
    4.7695   43.8823   55.2279 H   0  0  0  0  0  0  0  0  0  0  0  0
    5.4405   45.5486   55.2279 H   0  0  0  0  0  0  0  0  0  0  0  0
    4.9003   44.6365   50.9600 H   0  0  0  0  0  0  0  0  0  0  0  0
    8.4326   44.4143   50.4768 H   0  0  0  0  0  0  0  0  0  0  0  0
    6.9588   44.4427   49.4503 H   0  0  0  0  0  0  0  0  0  0  0  0
    8.0805   45.8457   49.4503 H   0  0  0  0  0  0  0  0  0  0  0  0
   10.1521   45.8758   52.8871 H   0  0  0  0  0  0  0  0  0  0  0  0
    9.3494   45.3915   51.3549 H   0  0  0  0  0  0  0  0  0  0  0  0
   10.5567   46.7215   51.3549 H   0  0  0  0  0  0  0  0  0  0  0  0
    8.5803   47.0768   54.3571 H   0  0  0  0  0  0  0  0  0  0  0  0
    9.7879   48.2529   53.7363 H   0  0  0  0  0  0  0  0  0  0  0  0
    8.0417   48.6741   53.7363 H   0  0  0  0  0  0  0  0  0  0  0  0
    8.9162   49.3629   51.6987 H   0  0  0  0  0  0  0  0  0  0  0  0
    9.6640   48.2160   50.5358 H   0  0  0  0  0  0  0  0  0  0  0  0
    7.8847   48.4626   50.5358 H   0  0  0  0  0  0  0  0  0  0  0  0
    3.5329   42.6207   53.1085 H   0  0  0  0  0  0  0  0  0  0  0  0
    2.1820   42.4341   51.9394 H   0  0  0  0  0  0  0  0  0  0  0  0
    3.1689   43.9350   51.9394 H   0  0  0  0  0  0  0  0  0  0  0  0
  1  2  1  0
  2  3  2  0
  3  4  1  0
  4  5  2  0
  5  6  1  0
  6  7  1  0
  7  8  1  0
  7  9  1  0
  9 10  2  0
  9 11  1  0
 11 12  1  0
 12 13  2  0
 13 14  1  0
 13 15  1  0
 15 16  1  0
 16 17  1  0
 16 18  1  0
 16 19  1  0
 15 20  1  0
  6 21  2  0
 21 22  1  0
 21  2  1  0
 20 11  2  0
  1 23  1  0
  1 24  1  0
  1 25  1  0
  3 26  1  0
  4 27  1  0
  5 28  1  0
  8 29  1  0
  8 30  1  0
  8 31  1  0
 12 32  1  0
 14 33  1  0
 14 34  1  0
 14 35  1  0
 17 36  1  0
 17 37  1  0
 17 38  1  0
 18 39  1  0
 18 40  1  0
 18 41  1  0
 19 42  1  0
 19 43  1  0
 19 44  1  0
 22 45  1  0
 22 46  1  0
 22 47  1  0
M  END
>  <meeko>  (4) 
{"is_sidechain": [false], "free_energy": -7.692, "intermolecular_energy": -9.686, "internal_energy": -0.3}

$$$$
ligand_99_conformer_5_docked
     RDKit          3D

 47 48  0  0  0  0  0  0  0  0999 V2000
    0.7760   45.1800   57.1430 C   0  0  0  0  0  0  0  0  0  0  0  0
    0.7660   45.0400   55.6430 C   0  0  0  0  0  0  0  0  0  0  0  0
   -0.3880   44.5380   55.0170 C   0  0  0  0  0  0  0  0  0  0  0  0
   -0.4350   44.3840   53.6330 C   0  0  0  0  0  0  0  0  0  0  0  0
    0.6670   44.7250   52.8540 C   0  0  0  0  0  0  0  0  0  0  0  0
    1.8250   45.2390   53.4500 C   0  0  0  0  0  0  0  0  0  0  0  0
    2.9520   45.5500   52.6170 N   0  0  0  0  0  0  0  0  0  0  0  0
    2.9460   46.8110   51.8730 C   0  0  0  0  0  0  0  0  0  0  0  0
    4.0470   44.6130   52.5320 C   0  0  0  0  0  0  0  0  0  0  0  0
    3.8460   43.4000   52.8130 O   0  0  0  0  0  0  0  0  0  0  0  0
    5.3990   45.0220   52.0990 C   0  0  0  0  0  0  0  0  0  0  0  0
    6.0190   44.6400   50.9290 C   0  0  0  0  0  0  0  0  0  0  0  0
    7.2380   45.2890   50.9530 C   0  0  0  0  0  0  0  0  0  0  0  0
    8.2520   45.1860   49.8530 C   0  0  0  0  0  0  0  0  0  0  0  0
    7.3130   46.0510   52.0810 N   0  0  0  0  0  0  0  0  0  0  0  0
    8.4360   46.8790   52.5920 C   0  0  0  0  0  0  0  0  0  0  0  0
    9.8030   46.2350   52.2700 C   0  0  0  0  0  0  0  0  0  0  0  0
    8.2810   47.0750   54.1100 C   0  0  0  0  0  0  0  0  0  0  0  0
    8.4080   48.2730   51.9180 C   0  0  0  0  0  0  0  0  0  0  0  0
    6.1970   45.8700   52.7740 N   0  0  0  0  0  0  0  0  0  0  0  0
    1.8780   45.4300   54.8510 C   0  0  0  0  0  0  0  0  0  0  0  0
    3.1280   45.9820   55.4970 C   0  0  0  0  0  0  0  0  0  0  0  0
    0.7049   44.1841   57.6047 H   0  0  0  0  0  0  0  0  0  0  0  0
    1.7111   45.6651   57.4598 H   0  0  0  0  0  0  0  0  0  0  0  0
   -0.0806   45.7930   57.4598 H   0  0  0  0  0  0  0  0  0  0  0  0
   -1.2624   44.2641   55.6256 H   0  0  0  0  0  0  0  0  0  0  0  0
   -1.3449   43.9921   53.1550 H   0  0  0  0  0  0  0  0  0  0  0  0
    0.6278   44.5898   51.7630 H   0  0  0  0  0  0  0  0  0  0  0  0
    2.9420   47.6538   52.5799 H   0  0  0  0  0  0  0  0  0  0  0  0
    3.8439   46.8676   51.2401 H   0  0  0  0  0  0  0  0  0  0  0  0
    2.0476   46.8590   51.2401 H   0  0  0  0  0  0  0  0  0  0  0  0
    5.6299   43.9681   50.1498 H   0  0  0  0  0  0  0  0  0  0  0  0
    9.2568   45.0839   50.2889 H   0  0  0  0  0  0  0  0  0  0  0  0
    8.0307   44.3057   49.2316 H   0  0  0  0  0  0  0  0  0  0  0  0
    8.2123   46.0928   49.2316 H   0  0  0  0  0  0  0  0  0  0  0  0
   10.3229   45.9901   53.2079 H   0  0  0  0  0  0  0  0  0  0  0  0
    9.6469   45.3157   51.6864 H   0  0  0  0  0  0  0  0  0  0  0  0
   10.4124   46.9407   51.6864 H   0  0  0  0  0  0  0  0  0  0  0  0
    8.8788   46.3191   54.6402 H   0  0  0  0  0  0  0  0  0  0  0  0
    8.6312   48.0802   54.3876 H   0  0  0  0  0  0  0  0  0  0  0  0
    7.2222   46.9659   54.3876 H   0  0  0  0  0  0  0  0  0  0  0  0
    8.3923   49.0543   52.6921 H   0  0  0  0  0  0  0  0  0  0  0  0
    9.3039   48.3955   51.2916 H   0  0  0  0  0  0  0  0  0  0  0  0
    7.5079   48.3594   51.2916 H   0  0  0  0  0  0  0  0  0  0  0  0
    3.0258   45.9368   56.5913 H   0  0  0  0  0  0  0  0  0  0  0  0
    3.9968   45.3838   55.1849 H   0  0  0  0  0  0  0  0  0  0  0  0
    3.2712   47.0270   55.1849 H   0  0  0  0  0  0  0  0  0  0  0  0
  1  2  1  0
  2  3  2  0
  3  4  1  0
  4  5  2  0
  5  6  1  0
  6  7  1  0
  7  8  1  0
  7  9  1  0
  9 10  2  0
  9 11  1  0
 11 12  1  0
 12 13  2  0
 13 14  1  0
 13 15  1  0
 15 16  1  0
 16 17  1  0
 16 18  1  0
 16 19  1  0
 15 20  1  0
  6 21  2  0
 21 22  1  0
 21  2  1  0
 20 11  2  0
  1 23  1  0
  1 24  1  0
  1 25  1  0
  3 26  1  0
  4 27  1  0
  5 28  1  0
  8 29  1  0
  8 30  1  0
  8 31  1  0
 12 32  1  0
 14 33  1  0
 14 34  1  0
 14 35  1  0
 17 36  1  0
 17 37  1  0
 17 38  1  0
 18 39  1  0
 18 40  1  0
 18 41  1  0
 19 42  1  0
 19 43  1  0
 19 44  1  0
 22 45  1  0
 22 46  1  0
 22 47  1  0
M  END
>  <meeko>  (5) 
{"is_sidechain": [false], "free_energy": -7.508, "intermolecular_energy": -9.548, "internal_energy": -0.21}

$$$$
