ligand_98_conformer_3_docked
     RDKit          3D

 49 51  0  0  0  0  0  0  0  0999 V2000
    9.9050   45.8390   51.5870 C   0  0  0  0  0  0  0  0  0  0  0  0
    9.3870   46.2150   52.9790 C   0  0  1  0  0  0  0  0  0  0  0  0
   10.4240   46.7730   53.7490 O   0  0  0  0  0  0  0  0  0  0  0  0
    9.8170   47.6220   54.7010 C   0  0  0  0  0  0  0  0  0  0  0  0
    8.3300   47.7510   54.3990 C   0  0  0  0  0  0  0  0  0  0  0  0
    8.2030   47.2040   52.9890 C   0  0  1  0  0  0  0  0  0  0  0  0
    8.3580   48.3360   51.9450 C   0  0  0  0  0  0  0  0  0  0  0  0
    6.9240   46.4980   52.7910 N   0  0  0  0  0  0  0  0  0  0  0  0
    6.4840   45.9790   51.5230 C   0  0  0  0  0  0  0  0  0  0  0  0
    7.1580   46.1920   50.4780 O   0  0  0  0  0  0  0  0  0  0  0  0
    5.1840   45.2210   51.4260 C   0  0  0  0  0  0  0  0  0  0  0  0
    3.9680   46.1850   51.3880 C   0  0  0  0  0  0  0  0  0  0  0  0
    3.2700   46.3050   52.7470 C   0  0  0  0  0  0  0  0  0  0  0  0
    2.8640   44.9770   53.2380 N   0  0  0  0  0  0  0  0  0  0  0  0
    1.7520   44.8590   54.1500 C   0  0  0  0  0  0  0  0  0  0  0  0
    0.5540   44.2500   53.7290 C   0  0  0  0  0  0  0  0  0  0  0  0
   -0.5300   44.1350   54.6040 C   0  0  0  0  0  0  0  0  0  0  0  0
   -0.4320   44.6230   55.9110 C   0  0  0  0  0  0  0  0  0  0  0  0
   -1.5490   44.5010   56.8120 C   0  0  0  0  0  0  0  0  0  0  0  0
   -2.4470   44.4050   57.5350 N   0  0  0  0  0  0  0  0  0  0  0  0
    0.7550   45.2240   56.3430 C   0  0  0  0  0  0  0  0  0  0  0  0
    1.8430   45.3430   55.4710 C   0  0  0  0  0  0  0  0  0  0  0  0
    2.9910   45.9000   55.9300 F   0  0  0  0  0  0  0  0  0  0  0  0
    3.6480   43.7880   52.8680 C   0  0  0  0  0  0  0  0  0  0  0  0
    5.0990   44.1760   52.5630 C   0  0  0  0  0  0  0  0  0  0  0  0
   10.7915   45.1955   51.6871 H   0  0  0  0  0  0  0  0  0  0  0  0
    9.1201   45.2989   51.0372 H   0  0  0  0  0  0  0  0  0  0  0  0
   10.1753   46.7526   51.0372 H   0  0  0  0  0  0  0  0  0  0  0  0
    9.0195   45.2688   53.4028 H   0  0  0  0  0  0  0  0  0  0  0  0
    9.9504   47.1977   55.7071 H   0  0  0  0  0  0  0  0  0  0  0  0
   10.2859   48.6160   54.6543 H   0  0  0  0  0  0  0  0  0  0  0  0
    7.7327   47.1566   55.1061 H   0  0  0  0  0  0  0  0  0  0  0  0
    7.9633   48.7840   54.4912 H   0  0  0  0  0  0  0  0  0  0  0  0
    8.4896   49.2973   52.4633 H   0  0  0  0  0  0  0  0  0  0  0  0
    9.2371   48.1358   51.3149 H   0  0  0  0  0  0  0  0  0  0  0  0
    7.4574   48.3795   51.3149 H   0  0  0  0  0  0  0  0  0  0  0  0
    6.3010   46.3490   53.6180 H   0  0  0  0  0  0  0  0  0  0  0  0
    5.1548   44.6706   50.4740 H   0  0  0  0  0  0  0  0  0  0  0  0
    4.3179   47.1820   51.0822 H   0  0  0  0  0  0  0  0  0  0  0  0
    3.2391   45.7748   50.6736 H   0  0  0  0  0  0  0  0  0  0  0  0
    3.9616   46.7622   53.4699 H   0  0  0  0  0  0  0  0  0  0  0  0
    2.3729   46.9310   52.6319 H   0  0  0  0  0  0  0  0  0  0  0  0
    0.4706   43.8616   52.7032 H   0  0  0  0  0  0  0  0  0  0  0  0
   -1.4619   43.6598   54.2639 H   0  0  0  0  0  0  0  0  0  0  0  0
    0.8335   45.6045   57.3721 H   0  0  0  0  0  0  0  0  0  0  0  0
    3.6326   43.0704   53.7015 H   0  0  0  0  0  0  0  0  0  0  0  0
    3.2044   43.3346   51.9693 H   0  0  0  0  0  0  0  0  0  0  0  0
    5.5534   44.5992   53.4710 H   0  0  0  0  0  0  0  0  0  0  0  0
    5.6352   43.2718   52.2390 H   0  0  0  0  0  0  0  0  0  0  0  0
  1  2  1  0
  2  3  1  0
  3  4  1  0
  4  5  1  0
  5  6  1  0
  6  7  1  0
  6  8  1  1
  8  9  1  0
  9 10  2  0
  9 11  1  0
 11 12  1  0
 12 13  1  0
 13 14  1  0
 14 15  1  0
 15 16  2  0
 16 17  1  0
 17 18  2  0
 18 19  1  0
 19 20  3  0
 18 21  1  0
 21 22  2  0
 22 23  1  0
 14 24  1  0
 24 25  1  0
  6  2  1  0
 25 11  1  0
 22 15  1  0
  1 26  1  0
  1 27  1  0
  1 28  1  0
  2 29  1  1
  4 30  1  0
  4 31  1  0
  5 32  1  0
  5 33  1  0
  7 34  1  0
  7 35  1  0
  7 36  1  0
  8 37  1  0
 11 38  1  0
 12 39  1  0
 12 40  1  0
 13 41  1  0
 13 42  1  0
 16 43  1  0
 17 44  1  0
 21 45  1  0
 24 46  1  0
 24 47  1  0
 25 48  1  0
 25 49  1  0
M  END
>  <meeko>  (1) 
{"is_sidechain": [false], "free_energy": -9.13, "intermolecular_energy": -10.731, "internal_energy": 0.209}

$$$$
ligand_98_conformer_3_docked
     RDKit          3D

 49 51  0  0  0  0  0  0  0  0999 V2000
    8.0090   45.7710   50.0120 C   0  0  0  0  0  0  0  0  0  0  0  0
    8.7600   45.6540   51.3440 C   0  0  1  0  0  0  0  0  0  0  0  0
   10.1330   45.8890   51.1490 O   0  0  0  0  0  0  0  0  0  0  0  0
   10.6450   46.3680   52.3750 C   0  0  0  0  0  0  0  0  0  0  0  0
    9.4990   46.6250   53.3430 C   0  0  0  0  0  0  0  0  0  0  0  0
    8.2680   46.6030   52.4560 C   0  0  1  0  0  0  0  0  0  0  0  0
    7.9430   48.0220   51.9320 C   0  0  0  0  0  0  0  0  0  0  0  0
    7.1010   46.0360   53.1550 N   0  0  0  0  0  0  0  0  0  0  0  0
    6.5450   46.5890   54.3620 C   0  0  0  0  0  0  0  0  0  0  0  0
    7.1070   47.5620   54.9360 O   0  0  0  0  0  0  0  0  0  0  0  0
    5.3130   45.9750   54.9790 C   0  0  0  0  0  0  0  0  0  0  0  0
    5.1920   44.4700   54.6200 C   0  0  0  0  0  0  0  0  0  0  0  0
    4.1950   44.2140   53.4850 C   0  0  0  0  0  0  0  0  0  0  0  0
    2.8760   44.7750   53.8190 N   0  0  0  0  0  0  0  0  0  0  0  0
    1.6850   44.2140   53.2270 C   0  0  0  0  0  0  0  0  0  0  0  0
    0.9490   43.2320   53.9170 C   0  0  0  0  0  0  0  0  0  0  0  0
   -0.2020   42.6780   53.3510 C   0  0  0  0  0  0  0  0  0  0  0  0
   -0.6360   43.0980   52.0890 C   0  0  0  0  0  0  0  0  0  0  0  0
   -1.8230   42.5280   51.5070 C   0  0  0  0  0  0  0  0  0  0  0  0
   -2.7770   42.0690   51.0400 N   0  0  0  0  0  0  0  0  0  0  0  0
    0.0850   44.0770   51.3960 C   0  0  0  0  0  0  0  0  0  0  0  0
    1.2380   44.6350   51.9580 C   0  0  0  0  0  0  0  0  0  0  0  0
    1.8950   45.6050   51.2770 F   0  0  0  0  0  0  0  0  0  0  0  0
    2.7830   45.9640   54.6830 C   0  0  0  0  0  0  0  0  0  0  0  0
    4.0640   46.7980   54.5860 C   0  0  0  0  0  0  0  0  0  0  0  0
    6.9394   45.9376   50.2075 H   0  0  0  0  0  0  0  0  0  0  0  0
    8.4127   46.6171   49.4365 H   0  0  0  0  0  0  0  0  0  0  0  0
    8.1362   44.8422   49.4365 H   0  0  0  0  0  0  0  0  0  0  0  0
    8.5598   44.6279   51.6861 H   0  0  0  0  0  0  0  0  0  0  0  0
   11.3259   45.6186   52.8049 H   0  0  0  0  0  0  0  0  0  0  0  0
   11.1920   47.3062   52.2001 H   0  0  0  0  0  0  0  0  0  0  0  0
    9.4462   45.8354   54.1071 H   0  0  0  0  0  0  0  0  0  0  0  0
    9.6104   47.5701   53.8946 H   0  0  0  0  0  0  0  0  0  0  0  0
    7.7876   48.7007   52.7836 H   0  0  0  0  0  0  0  0  0  0  0  0
    8.7807   48.3876   51.3199 H   0  0  0  0  0  0  0  0  0  0  0  0
    7.0297   47.9866   51.3199 H   0  0  0  0  0  0  0  0  0  0  0  0
    6.6350   45.1930   52.7500 H   0  0  0  0  0  0  0  0  0  0  0  0
    5.3974   46.0124   56.0751 H   0  0  0  0  0  0  0  0  0  0  0  0
    6.1809   44.1009   54.3104 H   0  0  0  0  0  0  0  0  0  0  0  0
    4.8238   43.9428   55.5125 H   0  0  0  0  0  0  0  0  0  0  0  0
    4.5664   44.6868   52.5639 H   0  0  0  0  0  0  0  0  0  0  0  0
    4.0928   43.1283   53.3404 H   0  0  0  0  0  0  0  0  0  0  0  0
    1.2831   42.8980   54.9104 H   0  0  0  0  0  0  0  0  0  0  0  0
   -0.7681   41.9101   53.8987 H   0  0  0  0  0  0  0  0  0  0  0  0
   -0.2566   44.4093   50.4046 H   0  0  0  0  0  0  0  0  0  0  0  0
    1.9268   46.5769   54.3647 H   0  0  0  0  0  0  0  0  0  0  0  0
    2.6486   45.6376   55.7248 H   0  0  0  0  0  0  0  0  0  0  0  0
    4.1814   47.1521   53.5512 H   0  0  0  0  0  0  0  0  0  0  0  0
    3.9766   47.6435   55.2842 H   0  0  0  0  0  0  0  0  0  0  0  0
  1  2  1  0
  2  3  1  0
  3  4  1  0
  4  5  1  0
  5  6  1  0
  6  7  1  0
  6  8  1  1
  8  9  1  0
  9 10  2  0
  9 11  1  0
 11 12  1  0
 12 13  1  0
 13 14  1  0
 14 15  1  0
 15 16  2  0
 16 17  1  0
 17 18  2  0
 18 19  1  0
 19 20  3  0
 18 21  1  0
 21 22  2  0
 22 23  1  0
 14 24  1  0
 24 25  1  0
  6  2  1  0
 25 11  1  0
 22 15  1  0
  1 26  1  0
  1 27  1  0
  1 28  1  0
  2 29  1  1
  4 30  1  0
  4 31  1  0
  5 32  1  0
  5 33  1  0
  7 34  1  0
  7 35  1  0
  7 36  1  0
  8 37  1  0
 11 38  1  0
 12 39  1  0
 12 40  1  0
 13 41  1  0
 13 42  1  0
 16 43  1  0
 17 44  1  0
 21 45  1  0
 24 46  1  0
 24 47  1  0
 25 48  1  0
 25 49  1  0
M  END
>  <meeko>  (2) 
{"is_sidechain": [false], "free_energy": -8.623, "intermolecular_energy": -9.688, "internal_energy": -0.237}

$$$$
ligand_98_conformer_3_docked
     RDKit          3D

 49 51  0  0  0  0  0  0  0  0999 V2000
   -0.8380   46.5570   57.2020 C   0  0  0  0  0  0  0  0  0  0  0  0
   -1.0690   45.1460   56.6510 C   0  0  1  0  0  0  0  0  0  0  0  0
   -1.7750   44.3680   57.5870 O   0  0  0  0  0  0  0  0  0  0  0  0
   -2.4700   43.3790   56.8570 C   0  0  0  0  0  0  0  0  0  0  0  0
   -2.3430   43.6590   55.3650 C   0  0  0  0  0  0  0  0  0  0  0  0
   -1.8310   45.0860   55.3110 C   0  0  1  0  0  0  0  0  0  0  0  0
   -3.0070   46.0900   55.2450 C   0  0  0  0  0  0  0  0  0  0  0  0
   -0.9160   45.2950   54.1740 N   0  0  0  0  0  0  0  0  0  0  0  0
    0.1550   44.3970   53.8330 C   0  0  0  0  0  0  0  0  0  0  0  0
    0.4190   43.4090   54.5720 O   0  0  0  0  0  0  0  0  0  0  0  0
    1.0070   44.6620   52.6170 C   0  0  0  0  0  0  0  0  0  0  0  0
    2.0660   43.5460   52.4150 C   0  0  0  0  0  0  0  0  0  0  0  0
    3.4560   43.9570   52.9150 C   0  0  0  0  0  0  0  0  0  0  0  0
    3.8890   45.2060   52.2680 N   0  0  0  0  0  0  0  0  0  0  0  0
    5.2970   45.4910   52.1260 C   0  0  0  0  0  0  0  0  0  0  0  0
    5.9230   45.3550   50.8730 C   0  0  0  0  0  0  0  0  0  0  0  0
    7.2870   45.6230   50.7270 C   0  0  0  0  0  0  0  0  0  0  0  0
    8.0440   46.0340   51.8290 C   0  0  0  0  0  0  0  0  0  0  0  0
    9.4490   46.3120   51.6770 C   0  0  0  0  0  0  0  0  0  0  0  0
   10.5770   46.5340   51.5540 N   0  0  0  0  0  0  0  0  0  0  0  0
    7.4320   46.1780   53.0790 C   0  0  0  0  0  0  0  0  0  0  0  0
    6.0670   45.9100   53.2310 C   0  0  0  0  0  0  0  0  0  0  0  0
    5.4960   46.0920   54.4470 F   0  0  0  0  0  0  0  0  0  0  0  0
    2.8880   46.2010   51.8500 C   0  0  0  0  0  0  0  0  0  0  0  0
    1.6220   46.0780   52.7060 C   0  0  0  0  0  0  0  0  0  0  0  0
   -0.8430   46.5266   58.3016 H   0  0  0  0  0  0  0  0  0  0  0  0
    0.1337   46.9336   56.8500 H   0  0  0  0  0  0  0  0  0  0  0  0
   -1.6389   47.2238   56.8500 H   0  0  0  0  0  0  0  0  0  0  0  0
   -0.0589   44.7526   56.4643 H   0  0  0  0  0  0  0  0  0  0  0  0
   -2.0424   42.3906   57.0814 H   0  0  0  0  0  0  0  0  0  0  0  0
   -3.5324   43.3948   57.1418 H   0  0  0  0  0  0  0  0  0  0  0  0
   -1.6281   42.9674   54.8953 H   0  0  0  0  0  0  0  0  0  0  0  0
   -3.2908   43.5247   54.8232 H   0  0  0  0  0  0  0  0  0  0  0  0
   -3.3192   46.3566   56.2655 H   0  0  0  0  0  0  0  0  0  0  0  0
   -2.6856   46.9966   54.7113 H   0  0  0  0  0  0  0  0  0  0  0  0
   -3.8520   45.6304   54.7113 H   0  0  0  0  0  0  0  0  0  0  0  0
   -1.0580   46.1330   53.5650 H   0  0  0  0  0  0  0  0  0  0  0  0
    0.3749   44.6365   51.7171 H   0  0  0  0  0  0  0  0  0  0  0  0
    1.7437   42.6502   52.9660 H   0  0  0  0  0  0  0  0  0  0  0  0
    2.1438   43.3510   51.3352 H   0  0  0  0  0  0  0  0  0  0  0  0
    3.4189   44.1076   54.0040 H   0  0  0  0  0  0  0  0  0  0  0  0
    4.1730   43.1608   52.6661 H   0  0  0  0  0  0  0  0  0  0  0  0
    5.3338   45.0350   50.0010 H   0  0  0  0  0  0  0  0  0  0  0  0
    7.7662   45.5104   49.7433 H   0  0  0  0  0  0  0  0  0  0  0  0
    8.0262   46.5032   53.9457 H   0  0  0  0  0  0  0  0  0  0  0  0
    3.3089   47.2104   51.9685 H   0  0  0  0  0  0  0  0  0  0  0  0
    2.6253   46.0221   50.7969 H   0  0  0  0  0  0  0  0  0  0  0  0
    1.8785   46.2900   53.7544 H   0  0  0  0  0  0  0  0  0  0  0  0
    0.8812   46.7981   52.3282 H   0  0  0  0  0  0  0  0  0  0  0  0
  1  2  1  0
  2  3  1  0
  3  4  1  0
  4  5  1  0
  5  6  1  0
  6  7  1  0
  6  8  1  6
  8  9  1  0
  9 10  2  0
  9 11  1  0
 11 12  1  0
 12 13  1  0
 13 14  1  0
 14 15  1  0
 15 16  2  0
 16 17  1  0
 17 18  2  0
 18 19  1  0
 19 20  3  0
 18 21  1  0
 21 22  2  0
 22 23  1  0
 14 24  1  0
 24 25  1  0
  6  2  1  0
 25 11  1  0
 22 15  1  0
  1 26  1  0
  1 27  1  0
  1 28  1  0
  2 29  1  6
  4 30  1  0
  4 31  1  0
  5 32  1  0
  5 33  1  0
  7 34  1  0
  7 35  1  0
  7 36  1  0
  8 37  1  0
 11 38  1  0
 12 39  1  0
 12 40  1  0
 13 41  1  0
 13 42  1  0
 16 43  1  0
 17 44  1  0
 21 45  1  0
 24 46  1  0
 24 47  1  0
 25 48  1  0
 25 49  1  0
M  END
>  <meeko>  (3) 
{"is_sidechain": [false], "free_energy": -8.065, "intermolecular_energy": -9.163, "internal_energy": -0.107}

$$$$
ligand_98_conformer_3_docked
     RDKit          3D

 49 51  0  0  0  0  0  0  0  0999 V2000
   -1.1230   44.2830   54.2030 C   0  0  0  0  0  0  0  0  0  0  0  0
   -1.1860   43.4420   52.9230 C   0  0  1  0  0  0  0  0  0  0  0  0
   -2.3160   42.6040   52.9470 O   0  0  0  0  0  0  0  0  0  0  0  0
   -2.6640   42.3460   51.6030 C   0  0  0  0  0  0  0  0  0  0  0  0
   -1.8230   43.2160   50.6790 C   0  0  0  0  0  0  0  0  0  0  0  0
   -1.2250   44.2530   51.6120 C   0  0  1  0  0  0  0  0  0  0  0  0
   -2.1380   45.5000   51.7040 C   0  0  0  0  0  0  0  0  0  0  0  0
    0.1330   44.6450   51.1930 N   0  0  0  0  0  0  0  0  0  0  0  0
    1.2740   43.7710   51.2590 C   0  0  0  0  0  0  0  0  0  0  0  0
    1.1710   42.6250   51.7770 O   0  0  0  0  0  0  0  0  0  0  0  0
    2.6170   44.2400   50.7550 C   0  0  0  0  0  0  0  0  0  0  0  0
    3.7640   43.3320   51.2760 C   0  0  0  0  0  0  0  0  0  0  0  0
    4.5050   43.9480   52.4670 C   0  0  0  0  0  0  0  0  0  0  0  0
    5.0170   45.2850   52.1230 N   0  0  0  0  0  0  0  0  0  0  0  0
    6.1690   45.8130   52.8140 C   0  0  0  0  0  0  0  0  0  0  0  0
    6.0610   46.2230   54.1560 C   0  0  0  0  0  0  0  0  0  0  0  0
    7.1700   46.7410   54.8320 C   0  0  0  0  0  0  0  0  0  0  0  0
    8.4020   46.8520   54.1790 C   0  0  0  0  0  0  0  0  0  0  0  0
    9.5430   47.3840   54.8780 C   0  0  0  0  0  0  0  0  0  0  0  0
   10.4600   47.8120   55.4390 N   0  0  0  0  0  0  0  0  0  0  0  0
    8.5220   46.4430   52.8470 C   0  0  0  0  0  0  0  0  0  0  0  0
    7.4160   45.9240   52.1650 C   0  0  0  0  0  0  0  0  0  0  0  0
    7.5740   45.5040   50.8860 F   0  0  0  0  0  0  0  0  0  0  0  0
    4.2990   46.1140   51.1420 C   0  0  0  0  0  0  0  0  0  0  0  0
    2.8150   45.7340   51.1030 C   0  0  0  0  0  0  0  0  0  0  0  0
   -1.1726   43.6206   55.0798 H   0  0  0  0  0  0  0  0  0  0  0  0
   -0.1799   44.8489   54.2239 H   0  0  0  0  0  0  0  0  0  0  0  0
   -1.9712   44.9831   54.2239 H   0  0  0  0  0  0  0  0  0  0  0  0
   -0.2463   42.8703   52.9207 H   0  0  0  0  0  0  0  0  0  0  0  0
   -2.4800   41.2858   51.3747 H   0  0  0  0  0  0  0  0  0  0  0  0
   -3.7287   42.5771   51.4516 H   0  0  0  0  0  0  0  0  0  0  0  0
   -1.0339   42.6238   50.1925 H   0  0  0  0  0  0  0  0  0  0  0  0
   -2.4088   43.6630   49.8623 H   0  0  0  0  0  0  0  0  0  0  0  0
   -2.3178   45.7456   52.7610 H   0  0  0  0  0  0  0  0  0  0  0  0
   -1.6478   46.3508   51.2082 H   0  0  0  0  0  0  0  0  0  0  0  0
   -3.0971   45.2896   51.2082 H   0  0  0  0  0  0  0  0  0  0  0  0
    0.2810   45.6060   50.8100 H   0  0  0  0  0  0  0  0  0  0  0  0
    2.6455   44.1537   49.6588 H   0  0  0  0  0  0  0  0  0  0  0  0
    3.3366   42.3673   51.5871 H   0  0  0  0  0  0  0  0  0  0  0  0
    4.4897   43.2081   50.4587 H   0  0  0  0  0  0  0  0  0  0  0  0
    3.8134   44.0336   53.3181 H   0  0  0  0  0  0  0  0  0  0  0  0
    5.3539   43.2999   52.7304 H   0  0  0  0  0  0  0  0  0  0  0  0
    5.0964   46.1352   54.6773 H   0  0  0  0  0  0  0  0  0  0  0  0
    7.0734   47.0619   55.8797 H   0  0  0  0  0  0  0  0  0  0  0  0
    9.4906   46.5298   52.3330 H   0  0  0  0  0  0  0  0  0  0  0  0
    4.3943   47.1730   51.4240 H   0  0  0  0  0  0  0  0  0  0  0  0
    4.7358   45.9462   50.1465 H   0  0  0  0  0  0  0  0  0  0  0  0
    2.3700   45.9325   52.0892 H   0  0  0  0  0  0  0  0  0  0  0  0
    2.3269   46.3360   50.3224 H   0  0  0  0  0  0  0  0  0  0  0  0
  1  2  1  0
  2  3  1  0
  3  4  1  0
  4  5  1  0
  5  6  1  0
  6  7  1  0
  6  8  1  6
  8  9  1  0
  9 10  2  0
  9 11  1  0
 11 12  1  0
 12 13  1  0
 13 14  1  0
 14 15  1  0
 15 16  2  0
 16 17  1  0
 17 18  2  0
 18 19  1  0
 19 20  3  0
 18 21  1  0
 21 22  2  0
 22 23  1  0
 14 24  1  0
 24 25  1  0
  6  2  1  0
 25 11  1  0
 22 15  1  0
  1 26  1  0
  1 27  1  0
  1 28  1  0
  2 29  1  6
  4 30  1  0
  4 31  1  0
  5 32  1  0
  5 33  1  0
  7 34  1  0
  7 35  1  0
  7 36  1  0
  8 37  1  0
 11 38  1  0
 12 39  1  0
 12 40  1  0
 13 41  1  0
 13 42  1  0
 16 43  1  0
 17 44  1  0
 21 45  1  0
 24 46  1  0
 24 47  1  0
 25 48  1  0
 25 49  1  0
M  END
>  <meeko>  (4) 
{"is_sidechain": [false], "free_energy": -7.995, "intermolecular_energy": -9.093, "internal_energy": -0.095}

$$$$
ligand_98_conformer_3_docked
     RDKit          3D

 49 51  0  0  0  0  0  0  0  0999 V2000
    5.4370   45.1830   55.4490 C   0  0  0  0  0  0  0  0  0  0  0  0
    4.5380   45.6500   54.2980 C   0  0  1  0  0  0  0  0  0  0  0  0
    4.2310   47.0150   54.4450 O   0  0  0  0  0  0  0  0  0  0  0  0
    3.9670   47.5170   53.1520 C   0  0  0  0  0  0  0  0  0  0  0  0
    4.3040   46.4580   52.1120 C   0  0  0  0  0  0  0  0  0  0  0  0
    5.1250   45.4440   52.8870 C   0  0  1  0  0  0  0  0  0  0  0  0
    6.6330   45.7830   52.8100 C   0  0  0  0  0  0  0  0  0  0  0  0
    4.8850   44.0690   52.4110 N   0  0  0  0  0  0  0  0  0  0  0  0
    5.4620   43.5260   51.2100 C   0  0  0  0  0  0  0  0  0  0  0  0
    6.1480   44.2580   50.4450 O   0  0  0  0  0  0  0  0  0  0  0  0
    5.2050   42.0900   50.8290 C   0  0  0  0  0  0  0  0  0  0  0  0
    6.1770   41.6180   49.7150 C   0  0  0  0  0  0  0  0  0  0  0  0
    5.5280   41.6250   48.3270 C   0  0  0  0  0  0  0  0  0  0  0  0
    4.3020   40.8100   48.3250 N   0  0  0  0  0  0  0  0  0  0  0  0
    3.8400   40.2120   47.0950 C   0  0  0  0  0  0  0  0  0  0  0  0
    3.1100   39.0080   47.1260 C   0  0  0  0  0  0  0  0  0  0  0  0
    2.6620   38.4180   45.9410 C   0  0  0  0  0  0  0  0  0  0  0  0
    2.9340   39.0220   44.7100 C   0  0  0  0  0  0  0  0  0  0  0  0
    2.4690   38.4150   43.4890 C   0  0  0  0  0  0  0  0  0  0  0  0
    2.0980   37.9250   42.5090 N   0  0  0  0  0  0  0  0  0  0  0  0
    3.6530   40.2220   44.6670 C   0  0  0  0  0  0  0  0  0  0  0  0
    4.1040   40.8170   45.8500 C   0  0  0  0  0  0  0  0  0  0  0  0
    4.7690   41.9960   45.7770 F   0  0  0  0  0  0  0  0  0  0  0  0
    3.5050   40.6830   49.5550 C   0  0  0  0  0  0  0  0  0  0  0  0
    3.7150   41.9030   50.4580 C   0  0  0  0  0  0  0  0  0  0  0  0
    4.9611   45.4302   56.4094 H   0  0  0  0  0  0  0  0  0  0  0  0
    5.5834   44.0949   55.3816 H   0  0  0  0  0  0  0  0  0  0  0  0
    6.4114   45.6889   55.3816 H   0  0  0  0  0  0  0  0  0  0  0  0
    3.6433   45.0141   54.3695 H   0  0  0  0  0  0  0  0  0  0  0  0
    2.9022   47.7815   53.0728 H   0  0  0  0  0  0  0  0  0  0  0  0
    4.5837   48.4106   52.9752 H   0  0  0  0  0  0  0  0  0  0  0  0
    3.3895   45.9977   51.7098 H   0  0  0  0  0  0  0  0  0  0  0  0
    4.8405   46.8678   51.2436 H   0  0  0  0  0  0  0  0  0  0  0  0
    7.0406   45.8746   53.8276 H   0  0  0  0  0  0  0  0  0  0  0  0
    7.1621   44.9814   52.2739 H   0  0  0  0  0  0  0  0  0  0  0  0
    6.7681   46.7339   52.2739 H   0  0  0  0  0  0  0  0  0  0  0  0
    4.2740   43.4420   52.9810 H   0  0  0  0  0  0  0  0  0  0  0  0
    5.4094   41.4425   51.6945 H   0  0  0  0  0  0  0  0  0  0  0  0
    7.0486   42.2889   49.7001 H   0  0  0  0  0  0  0  0  0  0  0  0
    6.4675   40.5817   49.9425 H   0  0  0  0  0  0  0  0  0  0  0  0
    5.2751   42.6594   48.0512 H   0  0  0  0  0  0  0  0  0  0  0  0
    6.2375   41.2008   47.6013 H   0  0  0  0  0  0  0  0  0  0  0  0
    2.8906   38.5280   48.0911 H   0  0  0  0  0  0  0  0  0  0  0  0
    2.0943   37.4765   45.9770 H   0  0  0  0  0  0  0  0  0  0  0  0
    3.8644   40.6993   43.6988 H   0  0  0  0  0  0  0  0  0  0  0  0
    2.4400   40.6075   49.2902 H   0  0  0  0  0  0  0  0  0  0  0  0
    3.8259   39.7804   50.0956 H   0  0  0  0  0  0  0  0  0  0  0  0
    3.3634   42.8019   49.9304 H   0  0  0  0  0  0  0  0  0  0  0  0
    3.1475   41.7441   51.3868 H   0  0  0  0  0  0  0  0  0  0  0  0
  1  2  1  0
  2  3  1  0
  3  4  1  0
  4  5  1  0
  5  6  1  0
  6  7  1  0
  6  8  1  6
  8  9  1  0
  9 10  2  0
  9 11  1  0
 11 12  1  0
 12 13  1  0
 13 14  1  0
 14 15  1  0
 15 16  2  0
 16 17  1  0
 17 18  2  0
 18 19  1  0
 19 20  3  0
 18 21  1  0
 21 22  2  0
 22 23  1  0
 14 24  1  0
 24 25  1  0
  6  2  1  0
 25 11  1  0
 22 15  1  0
  1 26  1  0
  1 27  1  0
  1 28  1  0
  2 29  1  6
  4 30  1  0
  4 31  1  0
  5 32  1  0
  5 33  1  0
  7 34  1  0
  7 35  1  0
  7 36  1  0
  8 37  1  0
 11 38  1  0
 12 39  1  0
 12 40  1  0
 13 41  1  0
 13 42  1  0
 16 43  1  0
 17 44  1  0
 21 45  1  0
 24 46  1  0
 24 47  1  0
 25 48  1  0
 25 49  1  0
M  END
>  <meeko>  (5) 
{"is_sidechain": [false], "free_energy": -7.802, "intermolecular_energy": -9.319, "internal_energy": 0.358}

$$$$
