MODEL 1
REMARK VINA RESULT:    -8.966      0.000      0.000
REMARK INTER + INTRA:         -11.248
REMARK INTER:                 -10.539
REMARK INTRA:                  -0.710
REMARK UNBOUND:                -0.710
REMARK SMILES O=C(NC1CCOCC1)c1cncc(-c2ccc3c(c2)CCO3)c1
REMARK SMILES IDX 10 1 11 2 12 3 13 4 14 5 24 6 2 7 1 8 3 9 4 11 5 12 9 13
REMARK SMILES IDX 6 14 8 15 7 16 15 17 16 18 20 19 17 20 19 21 18 22 21 23
REMARK SMILES IDX 23 24 22 25
REMARK H PARENT 3 10
ROOT
ATOM      1  C   UNL     1       6.369  43.959  50.478  1.00  0.00     0.058 A 
ATOM      2  C   UNL     1       6.494  42.714  49.843  1.00  0.00     0.124 A 
ATOM      3  N   UNL     1       5.559  41.749  50.037  1.00  0.00    -0.263 NA
ATOM      4  C   UNL     1       4.483  41.940  50.845  1.00  0.00     0.119 A 
ATOM      5  C   UNL     1       4.312  43.159  51.520  1.00  0.00     0.001 A 
ATOM      6  C   UNL     1       5.271  44.169  51.328  1.00  0.00     0.025 A 
ENDROOT
BRANCH   1   7
ATOM      7  C   UNL     1       7.393  45.011  50.274  1.00  0.00     0.253 C 
ATOM      8  O   UNL     1       8.188  44.921  49.299  1.00  0.00    -0.269 OA
ATOM      9  N   UNL     1       7.486  46.133  51.166  1.00  0.00    -0.349 N 
ATOM     10  H   UNL     1       6.665  46.361  51.771  1.00  0.00     0.164 HD
BRANCH   9  11
ATOM     11  C   UNL     1       8.677  46.992  51.217  1.00  0.00     0.086 C 
ATOM     12  C   UNL     1       9.823  46.265  51.936  1.00  0.00     0.053 C 
ATOM     13  C   UNL     1       8.368  48.317  51.949  1.00  0.00     0.053 C 
ATOM     14  C   UNL     1       9.511  46.073  53.438  1.00  0.00     0.162 C 
ATOM     15  C   UNL     1       8.530  48.180  53.476  1.00  0.00     0.162 C 
ATOM     16  O   UNL     1       8.398  46.832  53.885  1.00  0.00    -0.381 OA
ENDBRANCH   9  11
ENDBRANCH   1   7
BRANCH   5  17
ATOM     17  C   UNL     1       3.151  43.374  52.420  1.00  0.00    -0.016 A 
ATOM     18  C   UNL     1       1.956  42.630  52.241  1.00  0.00     0.012 A 
ATOM     19  C   UNL     1       3.221  44.323  53.466  1.00  0.00     0.016 A 
ATOM     20  C   UNL     1       0.855  42.832  53.090  1.00  0.00     0.047 A 
ATOM     21  C   UNL     1       2.109  44.499  54.289  1.00  0.00    -0.002 A 
ATOM     22  C   UNL     1       0.968  43.777  54.105  1.00  0.00     0.122 A 
ATOM     23  C   UNL     1       1.944  45.421  55.443  1.00  0.00     0.081 C 
ATOM     24  O   UNL     1       0.004  44.111  55.030  1.00  0.00    -0.493 OA
ATOM     25  C   UNL     1       0.497  45.121  55.909  1.00  0.00     0.234 C 
ENDBRANCH   5  17
TORSDOF 3
ENDMDL
MODEL 2
REMARK VINA RESULT:    -8.459      1.706      2.417
REMARK INTER + INTRA:         -10.652
REMARK INTER:                 -10.046
REMARK INTRA:                  -0.606
REMARK UNBOUND:                -0.710
REMARK SMILES O=C(NC1CCOCC1)c1cncc(-c2ccc3c(c2)CCO3)c1
REMARK SMILES IDX 10 1 11 2 12 3 13 4 14 5 24 6 2 7 1 8 3 9 4 11 5 12 9 13
REMARK SMILES IDX 6 14 8 15 7 16 15 17 16 18 20 19 17 20 19 21 18 22 21 23
REMARK SMILES IDX 23 24 22 25
REMARK H PARENT 3 10
ROOT
ATOM      1  C   UNL     1       4.982  45.292  52.538  1.00  0.00     0.058 A 
ATOM      2  C   UNL     1       5.448  44.283  51.681  1.00  0.00     0.124 A 
ATOM      3  N   UNL     1       4.679  43.195  51.420  1.00  0.00    -0.263 NA
ATOM      4  C   UNL     1       3.447  43.034  51.971  1.00  0.00     0.119 A 
ATOM      5  C   UNL     1       2.933  44.002  52.849  1.00  0.00     0.001 A 
ATOM      6  C   UNL     1       3.717  45.134  53.128  1.00  0.00     0.025 A 
ENDROOT
BRANCH   1   7
ATOM      7  C   UNL     1       5.823  46.475  52.831  1.00  0.00     0.253 C 
ATOM      8  O   UNL     1       5.280  47.536  53.242  1.00  0.00    -0.269 OA
ATOM      9  N   UNL     1       7.249  46.427  52.660  1.00  0.00    -0.349 N 
ATOM     10  H   UNL     1       7.716  45.493  52.616  1.00  0.00     0.164 HD
BRANCH   9  11
ATOM     11  C   UNL     1       8.069  47.644  52.595  1.00  0.00     0.086 C 
ATOM     12  C   UNL     1       9.183  47.475  51.551  1.00  0.00     0.053 C 
ATOM     13  C   UNL     1       8.695  47.959  53.970  1.00  0.00     0.053 C 
ATOM     14  C   UNL     1      10.221  46.421  52.003  1.00  0.00     0.162 C 
ATOM     15  C   UNL     1      10.022  47.203  54.183  1.00  0.00     0.162 C 
ATOM     16  O   UNL     1      10.089  46.050  53.367  1.00  0.00    -0.381 OA
ENDBRANCH   9  11
ENDBRANCH   1   7
BRANCH   5  17
ATOM     17  C   UNL     1       1.597  43.829  53.473  1.00  0.00    -0.016 A 
ATOM     18  C   UNL     1       0.680  42.877  52.957  1.00  0.00     0.012 A 
ATOM     19  C   UNL     1       1.221  44.610  54.591  1.00  0.00     0.016 A 
ATOM     20  C   UNL     1      -0.585  42.712  53.544  1.00  0.00     0.047 A 
ATOM     21  C   UNL     1      -0.043  44.421  55.148  1.00  0.00    -0.002 A 
ATOM     22  C   UNL     1      -0.913  43.503  54.640  1.00  0.00     0.122 A 
ATOM     23  C   UNL     1      -0.658  45.110  56.313  1.00  0.00     0.081 C 
ATOM     24  O   UNL     1      -2.096  43.485  55.345  1.00  0.00    -0.493 OA
ATOM     25  C   UNL     1      -2.051  44.441  56.404  1.00  0.00     0.234 C 
ENDBRANCH   5  17
TORSDOF 3
ENDMDL
MODEL 3
REMARK VINA RESULT:    -8.378      2.192      3.838
REMARK INTER + INTRA:         -10.556
REMARK INTER:                  -9.949
REMARK INTRA:                  -0.607
REMARK UNBOUND:                -0.710
REMARK SMILES O=C(NC1CCOCC1)c1cncc(-c2ccc3c(c2)CCO3)c1
REMARK SMILES IDX 10 1 11 2 12 3 13 4 14 5 24 6 2 7 1 8 3 9 4 11 5 12 9 13
REMARK SMILES IDX 6 14 8 15 7 16 15 17 16 18 20 19 17 20 19 21 18 22 21 23
REMARK SMILES IDX 23 24 22 25
REMARK H PARENT 3 10
ROOT
ATOM      1  C   UNL     1       4.935  45.724  53.918  1.00  0.00     0.058 A 
ATOM      2  C   UNL     1       4.953  44.846  52.823  1.00  0.00     0.124 A 
ATOM      3  N   UNL     1       3.870  44.076  52.543  1.00  0.00    -0.263 NA
ATOM      4  C   UNL     1       2.743  44.116  53.301  1.00  0.00     0.119 A 
ATOM      5  C   UNL     1       2.670  44.963  54.419  1.00  0.00     0.001 A 
ATOM      6  C   UNL     1       3.783  45.767  54.720  1.00  0.00     0.025 A 
ENDROOT
BRANCH   1   7
ATOM      7  C   UNL     1       6.119  46.558  54.229  1.00  0.00     0.253 C 
ATOM      8  O   UNL     1       5.980  47.592  54.938  1.00  0.00    -0.269 OA
ATOM      9  N   UNL     1       7.422  46.201  53.741  1.00  0.00    -0.349 N 
ATOM     10  H   UNL     1       7.585  45.218  53.424  1.00  0.00     0.164 HD
BRANCH   9  11
ATOM     11  C   UNL     1       8.536  47.157  53.721  1.00  0.00     0.086 C 
ATOM     12  C   UNL     1       8.352  48.158  52.570  1.00  0.00     0.053 C 
ATOM     13  C   UNL     1       9.886  46.425  53.555  1.00  0.00     0.053 C 
ATOM     14  C   UNL     1       8.507  47.467  51.195  1.00  0.00     0.162 C 
ATOM     15  C   UNL     1      10.220  46.165  52.073  1.00  0.00     0.162 C 
ATOM     16  O   UNL     1       9.049  46.158  51.280  1.00  0.00    -0.381 OA
ENDBRANCH   9  11
ENDBRANCH   1   7
BRANCH   5  17
ATOM     17  C   UNL     1       1.452  45.002  55.266  1.00  0.00    -0.016 A 
ATOM     18  C   UNL     1       1.469  45.665  56.520  1.00  0.00     0.012 A 
ATOM     19  C   UNL     1       0.258  44.377  54.834  1.00  0.00     0.016 A 
ATOM     20  C   UNL     1       0.318  45.702  57.325  1.00  0.00     0.047 A 
ATOM     21  C   UNL     1      -0.865  44.433  55.658  1.00  0.00    -0.002 A 
ATOM     22  C   UNL     1      -0.833  45.074  56.861  1.00  0.00     0.122 A 
ATOM     23  C   UNL     1      -2.218  43.864  55.424  1.00  0.00     0.081 C 
ATOM     24  O   UNL     1      -2.050  45.005  57.502  1.00  0.00    -0.493 OA
ATOM     25  C   UNL     1      -2.984  44.277  56.705  1.00  0.00     0.234 C 
ENDBRANCH   5  17
TORSDOF 3
ENDMDL
MODEL 4
REMARK VINA RESULT:    -8.338      2.918      8.300
REMARK INTER + INTRA:         -10.509
REMARK INTER:                  -9.905
REMARK INTRA:                  -0.605
REMARK UNBOUND:                -0.710
REMARK SMILES O=C(NC1CCOCC1)c1cncc(-c2ccc3c(c2)CCO3)c1
REMARK SMILES IDX 10 1 11 2 12 3 13 4 14 5 24 6 2 7 1 8 3 9 4 11 5 12 9 13
REMARK SMILES IDX 6 14 8 15 7 16 15 17 16 18 20 19 17 20 19 21 18 22 21 23
REMARK SMILES IDX 23 24 22 25
REMARK H PARENT 3 10
ROOT
ATOM      1  C   UNL     1       2.065  45.458  53.571  1.00  0.00     0.058 A 
ATOM      2  C   UNL     1       1.322  45.455  52.381  1.00  0.00     0.124 A 
ATOM      3  N   UNL     1       1.943  45.609  51.184  1.00  0.00    -0.263 NA
ATOM      4  C   UNL     1       3.289  45.775  51.087  1.00  0.00     0.119 A 
ATOM      5  C   UNL     1       4.084  45.803  52.244  1.00  0.00     0.001 A 
ATOM      6  C   UNL     1       3.455  45.644  53.490  1.00  0.00     0.025 A 
ENDROOT
BRANCH   1   7
ATOM      7  C   UNL     1       1.387  45.299  54.879  1.00  0.00     0.253 C 
ATOM      8  O   UNL     1       2.071  45.036  55.905  1.00  0.00    -0.269 OA
ATOM      9  N   UNL     1      -0.038  45.448  54.994  1.00  0.00    -0.349 N 
ATOM     10  H   UNL     1      -0.551  45.949  54.234  1.00  0.00     0.164 HD
BRANCH   9  11
ATOM     11  C   UNL     1      -0.781  44.962  56.164  1.00  0.00     0.086 C 
ATOM     12  C   UNL     1      -1.726  43.823  55.754  1.00  0.00     0.053 C 
ATOM     13  C   UNL     1      -1.599  46.103  56.808  1.00  0.00     0.053 C 
ATOM     14  C   UNL     1      -2.869  44.340  54.848  1.00  0.00     0.162 C 
ATOM     15  C   UNL     1      -2.976  46.272  56.135  1.00  0.00     0.162 C 
ATOM     16  O   UNL     1      -2.968  45.755  54.819  1.00  0.00    -0.381 OA
ENDBRANCH   9  11
ENDBRANCH   1   7
BRANCH   5  17
ATOM     17  C   UNL     1       5.552  46.004  52.153  1.00  0.00    -0.016 A 
ATOM     18  C   UNL     1       6.256  45.641  50.975  1.00  0.00     0.012 A 
ATOM     19  C   UNL     1       6.268  46.558  53.239  1.00  0.00     0.016 A 
ATOM     20  C   UNL     1       7.645  45.828  50.886  1.00  0.00     0.047 A 
ATOM     21  C   UNL     1       7.647  46.728  53.118  1.00  0.00    -0.002 A 
ATOM     22  C   UNL     1       8.309  46.375  51.979  1.00  0.00     0.122 A 
ATOM     23  C   UNL     1       8.605  47.286  54.108  1.00  0.00     0.081 C 
ATOM     24  O   UNL     1       9.658  46.633  52.079  1.00  0.00    -0.493 OA
ATOM     25  C   UNL     1       9.957  47.197  53.356  1.00  0.00     0.234 C 
ENDBRANCH   5  17
TORSDOF 3
ENDMDL
MODEL 5
REMARK VINA RESULT:    -8.273      3.057      8.074
REMARK INTER + INTRA:         -10.434
REMARK INTER:                  -9.839
REMARK INTRA:                  -0.595
REMARK UNBOUND:                -0.710
REMARK SMILES O=C(NC1CCOCC1)c1cncc(-c2ccc3c(c2)CCO3)c1
REMARK SMILES IDX 10 1 11 2 12 3 13 4 14 5 24 6 2 7 1 8 3 9 4 11 5 12 9 13
REMARK SMILES IDX 6 14 8 15 7 16 15 17 16 18 20 19 17 20 19 21 18 22 21 23
REMARK SMILES IDX 23 24 22 25
REMARK H PARENT 3 10
ROOT
ATOM      1  C   UNL     1       2.162  44.083  51.429  1.00  0.00     0.058 A 
ATOM      2  C   UNL     1       2.274  42.711  51.155  1.00  0.00     0.124 A 
ATOM      3  N   UNL     1       3.496  42.126  51.073  1.00  0.00    -0.263 NA
ATOM      4  C   UNL     1       4.645  42.831  51.243  1.00  0.00     0.119 A 
ATOM      5  C   UNL     1       4.598  44.210  51.503  1.00  0.00     0.001 A 
ATOM      6  C   UNL     1       3.340  44.830  51.593  1.00  0.00     0.025 A 
ENDROOT
BRANCH   1   7
ATOM      7  C   UNL     1       0.829  44.725  51.510  1.00  0.00     0.253 C 
ATOM      8  O   UNL     1       0.676  45.747  52.232  1.00  0.00    -0.269 OA
ATOM      9  N   UNL     1      -0.288  44.202  50.773  1.00  0.00    -0.349 N 
ATOM     10  H   UNL     1      -0.100  43.565  49.965  1.00  0.00     0.164 HD
BRANCH   9  11
ATOM     11  C   UNL     1      -1.674  44.574  51.087  1.00  0.00     0.086 C 
ATOM     12  C   UNL     1      -2.321  43.497  51.971  1.00  0.00     0.053 C 
ATOM     13  C   UNL     1      -2.503  44.748  49.796  1.00  0.00     0.053 C 
ATOM     14  C   UNL     1      -2.520  42.176  51.191  1.00  0.00     0.162 C 
ATOM     15  C   UNL     1      -3.085  43.408  49.303  1.00  0.00     0.162 C 
ATOM     16  O   UNL     1      -2.333  42.315  49.791  1.00  0.00    -0.381 OA
ENDBRANCH   9  11
ENDBRANCH   1   7
BRANCH   5  17
ATOM     17  C   UNL     1       5.847  44.995  51.672  1.00  0.00    -0.016 A 
ATOM     18  C   UNL     1       6.743  45.165  50.585  1.00  0.00     0.012 A 
ATOM     19  C   UNL     1       6.160  45.584  52.920  1.00  0.00     0.016 A 
ATOM     20  C   UNL     1       7.925  45.906  50.741  1.00  0.00     0.047 A 
ATOM     21  C   UNL     1       7.343  46.312  53.041  1.00  0.00    -0.002 A 
ATOM     22  C   UNL     1       8.194  46.466  51.986  1.00  0.00     0.122 A 
ATOM     23  C   UNL     1       7.882  47.019  54.232  1.00  0.00     0.081 C 
ATOM     24  O   UNL     1       9.293  47.221  52.331  1.00  0.00    -0.493 OA
ATOM     25  C   UNL     1       9.207  47.617  53.699  1.00  0.00     0.234 C 
ENDBRANCH   5  17
TORSDOF 3
ENDMDL
