ligand_64_conformer_3_docked
     RDKit          3D

 40 42  0  0  0  0  0  0  0  0999 V2000
    7.8520   47.4960   54.9540 O   0  0  0  0  0  0  0  0  0  0  0  0
    8.3400   47.1700   53.8400 C   0  0  0  0  0  0  0  0  0  0  0  0
    9.7520   47.4550   53.4500 C   0  0  0  0  0  0  0  0  0  0  0  0
    9.9070   46.7660   52.0810 C   0  0  0  0  0  0  0  0  0  0  0  0
    8.5610   46.1770   51.8200 C   0  0  0  0  0  0  0  0  0  0  0  0
    8.2770   45.5310   50.7770 O   0  0  0  0  0  0  0  0  0  0  0  0
    7.6250   46.4350   52.8550 N   0  0  0  0  0  0  0  0  0  0  0  0
    6.2790   45.9330   52.9300 C   0  0  0  0  0  0  0  0  0  0  0  0
    5.2620   46.4510   52.1130 C   0  0  0  0  0  0  0  0  0  0  0  0
    3.9700   45.9310   52.2100 C   0  0  0  0  0  0  0  0  0  0  0  0
    3.6960   44.9000   53.1130 C   0  0  0  0  0  0  0  0  0  0  0  0
    2.0720   44.2270   53.2160 S   0  0  0  0  0  0  0  0  0  0  0  0
    1.1290   45.1080   52.4450 O   0  0  0  0  0  0  0  0  0  0  0  0
    1.6170   44.1810   54.6490 O   0  0  0  0  0  0  0  0  0  0  0  0
    2.0460   42.6280   52.5380 N   0  0  0  0  0  0  0  0  0  0  0  0
    2.4580   42.6800   51.1320 C   0  0  0  0  0  0  0  0  0  0  0  0
    3.7360   41.8480   50.9190 C   0  0  2  0  0  0  0  0  0  0  0  0
    4.9630   42.6780   50.6600 C   0  0  0  0  0  0  0  0  0  0  0  0
    5.7990   41.7720   49.7750 C   0  0  0  0  0  0  0  0  0  0  0  0
    4.9730   40.8000   49.1740 O   0  0  0  0  0  0  0  0  0  0  0  0
    3.6680   40.9790   49.6750 C   0  0  0  0  0  0  0  0  0  0  0  0
    4.7380   44.3960   53.9010 C   0  0  0  0  0  0  0  0  0  0  0  0
    5.9880   44.9160   53.7900 N   0  0  0  0  0  0  0  0  0  0  0  0
    9.9228   48.5383   53.3641 H   0  0  0  0  0  0  0  0  0  0  0  0
   10.4778   47.0906   54.1919 H   0  0  0  0  0  0  0  0  0  0  0  0
   10.1717   47.4971   51.3029 H   0  0  0  0  0  0  0  0  0  0  0  0
   10.7080   46.0121   52.0743 H   0  0  0  0  0  0  0  0  0  0  0  0
    5.4814   47.2607   51.4015 H   0  0  0  0  0  0  0  0  0  0  0  0
    3.1668   46.3331   51.5751 H   0  0  0  0  0  0  0  0  0  0  0  0
    2.7550   42.0700   53.0670 H   0  0  0  0  0  0  0  0  0  0  0  0
    1.6521   42.2749   50.5024 H   0  0  0  0  0  0  0  0  0  0  0  0
    2.6614   43.7255   50.8570 H   0  0  0  0  0  0  0  0  0  0  0  0
    3.8007   41.2762   51.8565 H   0  0  0  0  0  0  0  0  0  0  0  0
    4.7067   43.6131   50.1405 H   0  0  0  0  0  0  0  0  0  0  0  0
    5.4812   42.9890   51.5791 H   0  0  0  0  0  0  0  0  0  0  0  0
    6.2853   42.3729   48.9924 H   0  0  0  0  0  0  0  0  0  0  0  0
    6.5646   41.2716   50.3862 H   0  0  0  0  0  0  0  0  0  0  0  0
    3.0441   41.4708   48.9141 H   0  0  0  0  0  0  0  0  0  0  0  0
    3.2264   40.0029   49.9247 H   0  0  0  0  0  0  0  0  0  0  0  0
    4.5441   43.5782   54.6106 H   0  0  0  0  0  0  0  0  0  0  0  0
  1  2  2  0
  2  3  1  0
  3  4  1  0
  4  5  1  0
  5  6  2  0
  5  7  1  0
  7  8  1  0
  8  9  2  0
  9 10  1  0
 10 11  2  0
 11 12  1  0
 12 13  2  0
 12 14  2  0
 12 15  1  0
 15 16  1  0
 16 17  1  0
 17 18  1  0
 18 19  1  0
 19 20  1  0
 20 21  1  0
 11 22  1  0
 22 23  2  0
  7  2  1  0
 23  8  1  0
 21 17  1  0
  3 24  1  0
  3 25  1  0
  4 26  1  0
  4 27  1  0
  9 28  1  0
 10 29  1  0
 15 30  1  0
 16 31  1  0
 16 32  1  0
 17 33  1  1
 18 34  1  0
 18 35  1  0
 19 36  1  0
 19 37  1  0
 21 38  1  0
 21 39  1  0
 22 40  1  0
M  END
>  <meeko>  (1) 
{"is_sidechain": [false], "free_energy": -8.56, "intermolecular_energy": -11.062, "internal_energy": -0.964}

$$$$
ligand_64_conformer_3_docked
     RDKit          3D

 40 42  0  0  0  0  0  0  0  0999 V2000
    8.2610   45.5730   50.7740 O   0  0  0  0  0  0  0  0  0  0  0  0
    8.5280   46.1540   51.8590 C   0  0  0  0  0  0  0  0  0  0  0  0
    9.8340   46.8250   52.1280 C   0  0  0  0  0  0  0  0  0  0  0  0
    9.6360   47.4850   53.5060 C   0  0  0  0  0  0  0  0  0  0  0  0
    8.2460   47.1050   53.8910 C   0  0  0  0  0  0  0  0  0  0  0  0
    7.7080   47.4510   54.9760 O   0  0  0  0  0  0  0  0  0  0  0  0
    7.5960   46.2970   52.9220 N   0  0  0  0  0  0  0  0  0  0  0  0
    6.2310   45.8430   52.9690 C   0  0  0  0  0  0  0  0  0  0  0  0
    5.2470   46.4060   52.1420 C   0  0  0  0  0  0  0  0  0  0  0  0
    3.9360   45.9320   52.2120 C   0  0  0  0  0  0  0  0  0  0  0  0
    3.6100   44.9020   53.0980 C   0  0  0  0  0  0  0  0  0  0  0  0
    1.9620   44.2860   53.1660 S   0  0  0  0  0  0  0  0  0  0  0  0
    1.0610   45.2200   52.4080 O   0  0  0  0  0  0  0  0  0  0  0  0
    1.4890   44.2200   54.5930 O   0  0  0  0  0  0  0  0  0  0  0  0
    1.8860   42.7060   52.4480 N   0  0  0  0  0  0  0  0  0  0  0  0
    2.4000   42.7620   51.0760 C   0  0  0  0  0  0  0  0  0  0  0  0
    3.6600   41.8880   50.9420 C   0  0  2  0  0  0  0  0  0  0  0  0
    4.9220   42.6730   50.7160 C   0  0  0  0  0  0  0  0  0  0  0  0
    5.7680   41.7200   49.8940 C   0  0  0  0  0  0  0  0  0  0  0  0
    4.9400   40.7560   49.2820 O   0  0  0  0  0  0  0  0  0  0  0  0
    3.6210   40.9860   49.7190 C   0  0  0  0  0  0  0  0  0  0  0  0
    4.6200   44.3510   53.8960 C   0  0  0  0  0  0  0  0  0  0  0  0
    5.8900   44.8270   53.8120 N   0  0  0  0  0  0  0  0  0  0  0  0
   10.6520   46.0902   52.1601 H   0  0  0  0  0  0  0  0  0  0  0  0
   10.1071   47.5494   51.3465 H   0  0  0  0  0  0  0  0  0  0  0  0
   10.3635   47.0965   54.2339 H   0  0  0  0  0  0  0  0  0  0  0  0
    9.7853   48.5745   53.4793 H   0  0  0  0  0  0  0  0  0  0  0  0
    5.5070   47.2151   51.4436 H   0  0  0  0  0  0  0  0  0  0  0  0
    3.1585   46.3699   51.5688 H   0  0  0  0  0  0  0  0  0  0  0  0
    2.5190   42.0940   53.0110 H   0  0  0  0  0  0  0  0  0  0  0  0
    1.6280   42.3945   50.3839 H   0  0  0  0  0  0  0  0  0  0  0  0
    2.6589   43.8031   50.8329 H   0  0  0  0  0  0  0  0  0  0  0  0
    3.6652   41.3417   51.8967 H   0  0  0  0  0  0  0  0  0  0  0  0
    4.7176   43.6006   50.1612 H   0  0  0  0  0  0  0  0  0  0  0  0
    5.4087   42.9931   51.6491 H   0  0  0  0  0  0  0  0  0  0  0  0
    6.3063   42.2849   49.1186 H   0  0  0  0  0  0  0  0  0  0  0  0
    6.4906   41.2147   50.5517 H   0  0  0  0  0  0  0  0  0  0  0  0
    3.0460   41.4738   48.9181 H   0  0  0  0  0  0  0  0  0  0  0  0
    3.1402   40.0303   49.9748 H   0  0  0  0  0  0  0  0  0  0  0  0
    4.3852   43.5319   54.5917 H   0  0  0  0  0  0  0  0  0  0  0  0
  1  2  2  0
  2  3  1  0
  3  4  1  0
  4  5  1  0
  5  6  2  0
  5  7  1  0
  7  8  1  0
  8  9  2  0
  9 10  1  0
 10 11  2  0
 11 12  1  0
 12 13  2  0
 12 14  2  0
 12 15  1  0
 15 16  1  0
 16 17  1  0
 17 18  1  0
 18 19  1  0
 19 20  1  0
 20 21  1  0
 11 22  1  0
 22 23  2  0
  7  2  1  0
 23  8  1  0
 21 17  1  0
  3 24  1  0
  3 25  1  0
  4 26  1  0
  4 27  1  0
  9 28  1  0
 10 29  1  0
 15 30  1  0
 16 31  1  0
 16 32  1  0
 17 33  1  1
 18 34  1  0
 18 35  1  0
 19 36  1  0
 19 37  1  0
 21 38  1  0
 21 39  1  0
 22 40  1  0
M  END
>  <meeko>  (2) 
{"is_sidechain": [false], "free_energy": -8.414, "intermolecular_energy": -10.903, "internal_energy": -0.934}

$$$$
ligand_64_conformer_3_docked
     RDKit          3D

 40 42  0  0  0  0  0  0  0  0999 V2000
    7.3350   47.3760   54.9540 O   0  0  0  0  0  0  0  0  0  0  0  0
    8.0260   47.1280   53.9320 C   0  0  0  0  0  0  0  0  0  0  0  0
    9.4650   47.5060   53.8050 C   0  0  0  0  0  0  0  0  0  0  0  0
    9.8950   46.8900   52.4610 C   0  0  0  0  0  0  0  0  0  0  0  0
    8.6520   46.2430   51.9470 C   0  0  0  0  0  0  0  0  0  0  0  0
    8.5920   45.6310   50.8480 O   0  0  0  0  0  0  0  0  0  0  0  0
    7.5380   46.4020   52.8110 N   0  0  0  0  0  0  0  0  0  0  0  0
    6.2320   45.8260   52.6310 C   0  0  0  0  0  0  0  0  0  0  0  0
    5.3880   46.2440   51.5900 C   0  0  0  0  0  0  0  0  0  0  0  0
    4.1320   45.6540   51.4440 C   0  0  0  0  0  0  0  0  0  0  0  0
    3.7210   44.6530   52.3290 C   0  0  0  0  0  0  0  0  0  0  0  0
    2.1460   43.8910   52.1280 S   0  0  0  0  0  0  0  0  0  0  0  0
    2.2750   42.7550   51.1530 O   0  0  0  0  0  0  0  0  0  0  0  0
    1.1550   44.8810   51.5790 O   0  0  0  0  0  0  0  0  0  0  0  0
    1.5820   43.2780   53.6530 N   0  0  0  0  0  0  0  0  0  0  0  0
    0.1960   43.7010   53.8740 C   0  0  0  0  0  0  0  0  0  0  0  0
    0.1380   44.8020   54.9470 C   0  0  2  0  0  0  0  0  0  0  0  0
    1.3990   44.9240   55.7600 C   0  0  0  0  0  0  0  0  0  0  0  0
    0.8870   45.4150   57.1010 C   0  0  0  0  0  0  0  0  0  0  0  0
   -0.4860   45.1140   57.2250 O   0  0  0  0  0  0  0  0  0  0  0  0
   -0.9060   44.5260   56.0160 C   0  0  0  0  0  0  0  0  0  0  0  0
    4.5940   44.2490   53.3460 C   0  0  0  0  0  0  0  0  0  0  0  0
    5.8130   44.8360   53.4700 N   0  0  0  0  0  0  0  0  0  0  0  0
    9.5820   48.5996   53.7891 H   0  0  0  0  0  0  0  0  0  0  0  0
   10.0729   47.1474   54.6487 H   0  0  0  0  0  0  0  0  0  0  0  0
   10.2457   47.6690   51.7681 H   0  0  0  0  0  0  0  0  0  0  0  0
   10.7289   46.1806   52.5676 H   0  0  0  0  0  0  0  0  0  0  0  0
    5.7145   47.0311   50.8943 H   0  0  0  0  0  0  0  0  0  0  0  0
    3.4645   45.9769   50.6315 H   0  0  0  0  0  0  0  0  0  0  0  0
    1.5980   42.2350   53.5770 H   0  0  0  0  0  0  0  0  0  0  0  0
   -0.2192   44.0898   52.9325 H   0  0  0  0  0  0  0  0  0  0  0  0
   -0.3915   42.8364   54.2166 H   0  0  0  0  0  0  0  0  0  0  0  0
   -0.0692   45.6999   54.3462 H   0  0  0  0  0  0  0  0  0  0  0  0
    1.9019   43.9508   55.8599 H   0  0  0  0  0  0  0  0  0  0  0  0
    2.1464   45.5924   55.3075 H   0  0  0  0  0  0  0  0  0  0  0  0
    1.4445   44.9190   57.9092 H   0  0  0  0  0  0  0  0  0  0  0  0
    1.0288   46.5037   57.1686 H   0  0  0  0  0  0  0  0  0  0  0  0
   -1.0171   43.4401   56.1523 H   0  0  0  0  0  0  0  0  0  0  0  0
   -1.8738   44.9507   55.7109 H   0  0  0  0  0  0  0  0  0  0  0  0
    4.2927   43.4554   54.0456 H   0  0  0  0  0  0  0  0  0  0  0  0
  1  2  2  0
  2  3  1  0
  3  4  1  0
  4  5  1  0
  5  6  2  0
  5  7  1  0
  7  8  1  0
  8  9  2  0
  9 10  1  0
 10 11  2  0
 11 12  1  0
 12 13  2  0
 12 14  2  0
 12 15  1  0
 15 16  1  0
 16 17  1  0
 17 18  1  0
 18 19  1  0
 19 20  1  0
 20 21  1  0
 11 22  1  0
 22 23  2  0
  7  2  1  0
 23  8  1  0
 21 17  1  0
  3 24  1  0
  3 25  1  0
  4 26  1  0
  4 27  1  0
  9 28  1  0
 10 29  1  0
 15 30  1  0
 16 31  1  0
 16 32  1  0
 17 33  1  6
 18 34  1  0
 18 35  1  0
 19 36  1  0
 19 37  1  0
 21 38  1  0
 21 39  1  0
 22 40  1  0
M  END
>  <meeko>  (3) 
{"is_sidechain": [false], "free_energy": -8.047, "intermolecular_energy": -10.755, "internal_energy": -0.608}

$$$$
ligand_64_conformer_3_docked
     RDKit          3D

 40 42  0  0  0  0  0  0  0  0999 V2000
    8.6530   45.5870   50.7840 O   0  0  0  0  0  0  0  0  0  0  0  0
    8.7140   46.1570   51.9040 C   0  0  0  0  0  0  0  0  0  0  0  0
    9.9200   46.8960   52.3820 C   0  0  0  0  0  0  0  0  0  0  0  0
    9.4730   47.5110   53.7220 C   0  0  0  0  0  0  0  0  0  0  0  0
    8.0660   47.0430   53.8820 C   0  0  0  0  0  0  0  0  0  0  0  0
    7.3470   47.3320   54.8750 O   0  0  0  0  0  0  0  0  0  0  0  0
    7.6220   46.2220   52.8130 N   0  0  0  0  0  0  0  0  0  0  0  0
    6.2960   45.6890   52.6420 C   0  0  0  0  0  0  0  0  0  0  0  0
    5.5070   46.0410   51.5360 C   0  0  0  0  0  0  0  0  0  0  0  0
    4.2290   45.4960   51.4010 C   0  0  0  0  0  0  0  0  0  0  0  0
    3.7440   44.6040   52.3620 C   0  0  0  0  0  0  0  0  0  0  0  0
    2.1420   43.8960   52.1770 S   0  0  0  0  0  0  0  0  0  0  0  0
    2.2360   42.7100   51.2600 O   0  0  0  0  0  0  0  0  0  0  0  0
    1.1980   44.8970   51.5690 O   0  0  0  0  0  0  0  0  0  0  0  0
    1.5370   43.3800   53.7220 N   0  0  0  0  0  0  0  0  0  0  0  0
    0.1600   43.8530   53.8970 C   0  0  0  0  0  0  0  0  0  0  0  0
    0.1020   44.9370   54.9880 C   0  0  2  0  0  0  0  0  0  0  0  0
    1.3890   45.1020   55.7480 C   0  0  0  0  0  0  0  0  0  0  0  0
    0.9150   45.5530   57.1170 C   0  0  0  0  0  0  0  0  0  0  0  0
   -0.4370   45.1920   57.2950 O   0  0  0  0  0  0  0  0  0  0  0  0
   -0.8830   44.6020   56.0960 C   0  0  0  0  0  0  0  0  0  0  0  0
    4.5640   44.2620   53.4430 C   0  0  0  0  0  0  0  0  0  0  0  0
    5.8050   44.8040   53.5550 N   0  0  0  0  0  0  0  0  0  0  0  0
   10.7664   46.2091   52.5300 H   0  0  0  0  0  0  0  0  0  0  0  0
   10.2654   47.6532   51.6627 H   0  0  0  0  0  0  0  0  0  0  0  0
   10.1022   47.1480   54.5481 H   0  0  0  0  0  0  0  0  0  0  0  0
    9.5585   48.6076   53.7341 H   0  0  0  0  0  0  0  0  0  0  0  0
    5.8930   46.7415   50.7808 H   0  0  0  0  0  0  0  0  0  0  0  0
    3.6034   45.7685   50.5382 H   0  0  0  0  0  0  0  0  0  0  0  0
    1.5250   42.3350   53.7020 H   0  0  0  0  0  0  0  0  0  0  0  0
   -0.2025   44.2740   52.9476 H   0  0  0  0  0  0  0  0  0  0  0  0
   -0.4734   43.0062   54.2000 H   0  0  0  0  0  0  0  0  0  0  0  0
   -0.1679   45.8332   54.4101 H   0  0  0  0  0  0  0  0  0  0  0  0
    1.9363   44.1500   55.8119 H   0  0  0  0  0  0  0  0  0  0  0  0
    2.0872   45.8078   55.2744 H   0  0  0  0  0  0  0  0  0  0  0  0
    1.5274   45.0707   57.8931 H   0  0  0  0  0  0  0  0  0  0  0  0
    1.0134   46.6458   57.1947 H   0  0  0  0  0  0  0  0  0  0  0  0
   -0.9417   43.5107   56.2207 H   0  0  0  0  0  0  0  0  0  0  0  0
   -1.8802   44.9882   55.8383 H   0  0  0  0  0  0  0  0  0  0  0  0
    4.2035   43.5534   54.2032 H   0  0  0  0  0  0  0  0  0  0  0  0
  1  2  2  0
  2  3  1  0
  3  4  1  0
  4  5  1  0
  5  6  2  0
  5  7  1  0
  7  8  1  0
  8  9  2  0
  9 10  1  0
 10 11  2  0
 11 12  1  0
 12 13  2  0
 12 14  2  0
 12 15  1  0
 15 16  1  0
 16 17  1  0
 17 18  1  0
 18 19  1  0
 19 20  1  0
 20 21  1  0
 11 22  1  0
 22 23  2  0
  7  2  1  0
 23  8  1  0
 21 17  1  0
  3 24  1  0
  3 25  1  0
  4 26  1  0
  4 27  1  0
  9 28  1  0
 10 29  1  0
 15 30  1  0
 16 31  1  0
 16 32  1  0
 17 33  1  6
 18 34  1  0
 18 35  1  0
 19 36  1  0
 19 37  1  0
 21 38  1  0
 21 39  1  0
 22 40  1  0
M  END
>  <meeko>  (4) 
{"is_sidechain": [false], "free_energy": -7.956, "intermolecular_energy": -10.708, "internal_energy": -0.538}

$$$$
ligand_64_conformer_3_docked
     RDKit          3D

 40 42  0  0  0  0  0  0  0  0999 V2000
    8.3020   47.5600   55.0970 O   0  0  0  0  0  0  0  0  0  0  0  0
    8.5250   47.2010   53.9110 C   0  0  0  0  0  0  0  0  0  0  0  0
    9.8420   47.3840   53.2340 C   0  0  0  0  0  0  0  0  0  0  0  0
    9.6620   46.6870   51.8720 C   0  0  0  0  0  0  0  0  0  0  0  0
    8.2530   46.1970   51.9030 C   0  0  0  0  0  0  0  0  0  0  0  0
    7.7150   45.5740   50.9500 O   0  0  0  0  0  0  0  0  0  0  0  0
    7.5720   46.5200   53.1050 N   0  0  0  0  0  0  0  0  0  0  0  0
    6.2380   46.1160   53.4630 C   0  0  0  0  0  0  0  0  0  0  0  0
    6.0130   45.1070   54.4120 C   0  0  0  0  0  0  0  0  0  0  0  0
    4.7050   44.7490   54.7390 C   0  0  0  0  0  0  0  0  0  0  0  0
    3.6280   45.3950   54.1250 C   0  0  0  0  0  0  0  0  0  0  0  0
    1.9770   44.9610   54.5570 S   0  0  0  0  0  0  0  0  0  0  0  0
    1.0280   45.8790   53.8400 O   0  0  0  0  0  0  0  0  0  0  0  0
    1.7680   45.1200   56.0380 O   0  0  0  0  0  0  0  0  0  0  0  0
    1.6500   43.3200   54.0900 N   0  0  0  0  0  0  0  0  0  0  0  0
    2.1230   43.0920   52.7200 C   0  0  0  0  0  0  0  0  0  0  0  0
    0.9460   42.7020   51.8080 C   0  0  2  0  0  0  0  0  0  0  0  0
    0.4040   43.8450   50.9950 C   0  0  0  0  0  0  0  0  0  0  0  0
   -1.0590   43.4790   50.8360 C   0  0  0  0  0  0  0  0  0  0  0  0
   -1.4320   42.5600   51.8390 O   0  0  0  0  0  0  0  0  0  0  0  0
   -0.2780   42.2550   52.5880 C   0  0  0  0  0  0  0  0  0  0  0  0
    3.8880   46.4090   53.1950 C   0  0  0  0  0  0  0  0  0  0  0  0
    5.1700   46.7420   52.8920 N   0  0  0  0  0  0  0  0  0  0  0  0
   10.0673   48.4523   53.0996 H   0  0  0  0  0  0  0  0  0  0  0  0
   10.6779   46.9674   53.8152 H   0  0  0  0  0  0  0  0  0  0  0  0
    9.8110   47.3978   51.0459 H   0  0  0  0  0  0  0  0  0  0  0  0
   10.3891   45.8776   51.7103 H   0  0  0  0  0  0  0  0  0  0  0  0
    6.8624   44.6017   54.8948 H   0  0  0  0  0  0  0  0  0  0  0  0
    4.5209   43.9577   55.4806 H   0  0  0  0  0  0  0  0  0  0  0  0
    2.2070   42.7120   54.7330 H   0  0  0  0  0  0  0  0  0  0  0  0
    2.5884   44.0128   52.3385 H   0  0  0  0  0  0  0  0  0  0  0  0
    2.8581   42.2737   52.7261 H   0  0  0  0  0  0  0  0  0  0  0  0
    1.3883   41.9103   51.1855 H   0  0  0  0  0  0  0  0  0  0  0  0
    0.5179   44.8001   51.5287 H   0  0  0  0  0  0  0  0  0  0  0  0
    0.9253   43.9837   50.0363 H   0  0  0  0  0  0  0  0  0  0  0  0
   -1.6744   44.3864   50.9246 H   0  0  0  0  0  0  0  0  0  0  0  0
   -1.2143   43.0217   49.8477 H   0  0  0  0  0  0  0  0  0  0  0  0
   -0.3139   42.7820   53.5529 H   0  0  0  0  0  0  0  0  0  0  0  0
   -0.2281   41.1716   52.7718 H   0  0  0  0  0  0  0  0  0  0  0  0
    3.0537   46.9364   52.7093 H   0  0  0  0  0  0  0  0  0  0  0  0
  1  2  2  0
  2  3  1  0
  3  4  1  0
  4  5  1  0
  5  6  2  0
  5  7  1  0
  7  8  1  0
  8  9  2  0
  9 10  1  0
 10 11  2  0
 11 12  1  0
 12 13  2  0
 12 14  2  0
 12 15  1  0
 15 16  1  0
 16 17  1  0
 17 18  1  0
 18 19  1  0
 19 20  1  0
 20 21  1  0
 11 22  1  0
 22 23  2  0
  7  2  1  0
 23  8  1  0
 21 17  1  0
  3 24  1  0
  3 25  1  0
  4 26  1  0
  4 27  1  0
  9 28  1  0
 10 29  1  0
 15 30  1  0
 16 31  1  0
 16 32  1  0
 17 33  1  6
 18 34  1  0
 18 35  1  0
 19 36  1  0
 19 37  1  0
 21 38  1  0
 21 39  1  0
 22 40  1  0
M  END
>  <meeko>  (5) 
{"is_sidechain": [false], "free_energy": -7.577, "intermolecular_energy": -10.01, "internal_energy": -0.746}

$$$$
