ligand_26_conformer_1_docked
     RDKit          3D

 42 44  0  0  0  0  0  0  0  0999 V2000
    9.2150   47.9140   54.8300 C   0  0  0  0  0  0  0  0  0  0  0  0
    8.8930   47.1230   53.5970 C   0  0  0  0  0  0  0  0  0  0  0  0
    9.8900   46.8580   52.6520 C   0  0  0  0  0  0  0  0  0  0  0  0
    9.5820   46.1650   51.4790 C   0  0  0  0  0  0  0  0  0  0  0  0
    8.2730   45.7280   51.2260 C   0  0  0  0  0  0  0  0  0  0  0  0
    7.9870   44.9840   49.9470 C   0  0  0  0  0  0  0  0  0  0  0  0
    7.2540   46.0180   52.1680 C   0  0  0  0  0  0  0  0  0  0  0  0
    5.5740   45.5240   51.9010 S   0  0  0  0  0  0  0  0  0  0  0  0
    4.6640   46.2250   52.8700 O   0  0  0  0  0  0  0  0  0  0  0  0
    5.1710   45.8930   50.5010 O   0  0  0  0  0  0  0  0  0  0  0  0
    5.4350   43.8090   52.1360 N   0  0  0  0  0  0  0  0  0  0  0  0
    4.9890   42.9000   51.1150 C   0  0  0  0  0  0  0  0  0  0  0  0
    3.6510   42.4840   51.1030 C   0  0  0  0  0  0  0  0  0  0  0  0
    3.1880   41.6000   50.1240 C   0  0  0  0  0  0  0  0  0  0  0  0
    4.0570   41.1230   49.1280 C   0  0  0  0  0  0  0  0  0  0  0  0
    3.5910   40.1950   48.0720 C   0  0  0  0  0  0  0  0  0  0  0  0
    3.7050   40.3360   46.7020 C   0  0  0  0  0  0  0  0  0  0  0  0
    3.1520   39.2650   46.1050 N   0  0  0  0  0  0  0  0  0  0  0  0
    2.7300   38.5120   47.1420 C   0  0  0  0  0  0  0  0  0  0  0  0
    2.0140   37.2150   46.9780 C   0  0  0  0  0  0  0  0  0  0  0  0
    2.9830   39.0600   48.3070 O   0  0  0  0  0  0  0  0  0  0  0  0
    5.3940   41.5500   49.1320 C   0  0  0  0  0  0  0  0  0  0  0  0
    5.8560   42.4290   50.1120 C   0  0  0  0  0  0  0  0  0  0  0  0
    7.5780   46.7130   53.3430 C   0  0  0  0  0  0  0  0  0  0  0  0
    8.9723   47.3177   55.7219 H   0  0  0  0  0  0  0  0  0  0  0  0
   10.2863   48.1636   54.8362 H   0  0  0  0  0  0  0  0  0  0  0  0
    8.6226   48.8408   54.8362 H   0  0  0  0  0  0  0  0  0  0  0  0
   10.9207   47.1968   52.8335 H   0  0  0  0  0  0  0  0  0  0  0  0
   10.3751   45.9595   50.7450 H   0  0  0  0  0  0  0  0  0  0  0  0
    7.6016   43.9814   50.1843 H   0  0  0  0  0  0  0  0  0  0  0  0
    7.2370   45.5360   49.3616 H   0  0  0  0  0  0  0  0  0  0  0  0
    8.9137   44.8915   49.3616 H   0  0  0  0  0  0  0  0  0  0  0  0
    5.7870   43.4230   53.0420 H   0  0  0  0  0  0  0  0  0  0  0  0
    2.9580   42.8568   51.8716 H   0  0  0  0  0  0  0  0  0  0  0  0
    2.1369   41.2758   50.1334 H   0  0  0  0  0  0  0  0  0  0  0  0
    4.1723   41.1863   46.1837 H   0  0  0  0  0  0  0  0  0  0  0  0
    1.7827   36.7961   47.9685 H   0  0  0  0  0  0  0  0  0  0  0  0
    1.0792   37.3800   46.4223 H   0  0  0  0  0  0  0  0  0  0  0  0
    2.6517   36.5118   46.4223 H   0  0  0  0  0  0  0  0  0  0  0  0
    6.0839   41.1883   48.3554 H   0  0  0  0  0  0  0  0  0  0  0  0
    6.9061   42.7563   50.1004 H   0  0  0  0  0  0  0  0  0  0  0  0
    6.7884   46.9390   54.0748 H   0  0  0  0  0  0  0  0  0  0  0  0
  1  2  1  0
  2  3  2  0
  3  4  1  0
  4  5  2  0
  5  6  1  0
  5  7  1  0
  7  8  1  0
  8  9  2  0
  8 10  2  0
  8 11  1  0
 11 12  1  0
 12 13  2  0
 13 14  1  0
 14 15  2  0
 15 16  1  0
 16 17  2  0
 17 18  1  0
 18 19  2  0
 19 20  1  0
 19 21  1  0
 15 22  1  0
 22 23  2  0
  7 24  2  0
 24  2  1  0
 23 12  1  0
 21 16  1  0
  1 25  1  0
  1 26  1  0
  1 27  1  0
  3 28  1  0
  4 29  1  0
  6 30  1  0
  6 31  1  0
  6 32  1  0
 11 33  1  0
 13 34  1  0
 14 35  1  0
 17 36  1  0
 20 37  1  0
 20 38  1  0
 20 39  1  0
 22 40  1  0
 23 41  1  0
 24 42  1  0
M  END
>  <meeko>  (1) 
{"is_sidechain": [false], "free_energy": -9.151, "intermolecular_energy": -11.29, "internal_energy": -0.214}

$$$$
ligand_26_conformer_1_docked
     RDKit          3D

 42 44  0  0  0  0  0  0  0  0999 V2000
   10.5480   47.5840   55.4690 C   0  0  0  0  0  0  0  0  0  0  0  0
    9.7010   47.1010   54.3300 C   0  0  0  0  0  0  0  0  0  0  0  0
   10.2960   46.7440   53.1150 C   0  0  0  0  0  0  0  0  0  0  0  0
    9.5060   46.3420   52.0350 C   0  0  0  0  0  0  0  0  0  0  0  0
    8.1080   46.2950   52.1470 C   0  0  0  0  0  0  0  0  0  0  0  0
    7.2960   45.8540   50.9560 C   0  0  0  0  0  0  0  0  0  0  0  0
    7.4990   46.6810   53.3670 C   0  0  0  0  0  0  0  0  0  0  0  0
    5.7400   46.6750   53.5710 S   0  0  0  0  0  0  0  0  0  0  0  0
    5.3480   47.5280   54.7450 O   0  0  0  0  0  0  0  0  0  0  0  0
    5.1000   47.2320   52.3300 O   0  0  0  0  0  0  0  0  0  0  0  0
    5.2000   45.0480   53.8490 N   0  0  0  0  0  0  0  0  0  0  0  0
    3.9300   44.5440   53.4000 C   0  0  0  0  0  0  0  0  0  0  0  0
    2.7530   45.0310   53.9860 C   0  0  0  0  0  0  0  0  0  0  0  0
    1.5030   44.5600   53.5720 C   0  0  0  0  0  0  0  0  0  0  0  0
    1.4080   43.5980   52.5520 C   0  0  0  0  0  0  0  0  0  0  0  0
    0.0970   43.0890   52.0860 C   0  0  0  0  0  0  0  0  0  0  0  0
   -0.7590   42.2200   52.7350 C   0  0  0  0  0  0  0  0  0  0  0  0
   -1.8430   42.0180   51.9650 N   0  0  0  0  0  0  0  0  0  0  0  0
   -1.6010   42.7810   50.8780 C   0  0  0  0  0  0  0  0  0  0  0  0
   -2.5230   42.8630   49.7100 C   0  0  0  0  0  0  0  0  0  0  0  0
   -0.4530   43.4120   50.9430 O   0  0  0  0  0  0  0  0  0  0  0  0
    2.5860   43.1200   51.9570 C   0  0  0  0  0  0  0  0  0  0  0  0
    3.8330   43.5880   52.3740 C   0  0  0  0  0  0  0  0  0  0  0  0
    8.3050   47.0810   54.4440 C   0  0  0  0  0  0  0  0  0  0  0  0
   10.0707   47.3118   56.4220 H   0  0  0  0  0  0  0  0  0  0  0  0
   11.5422   47.1170   55.4103 H   0  0  0  0  0  0  0  0  0  0  0  0
   10.6524   48.6775   55.4103 H   0  0  0  0  0  0  0  0  0  0  0  0
   11.3904   46.7800   53.0096 H   0  0  0  0  0  0  0  0  0  0  0  0
    9.9853   46.0591   51.0862 H   0  0  0  0  0  0  0  0  0  0  0  0
    6.3784   45.3557   51.3020 H   0  0  0  0  0  0  0  0  0  0  0  0
    7.0299   46.7315   50.3484 H   0  0  0  0  0  0  0  0  0  0  0  0
    7.8872   45.1530   50.3484 H   0  0  0  0  0  0  0  0  0  0  0  0
    5.8840   44.3880   54.2840 H   0  0  0  0  0  0  0  0  0  0  0  0
    2.8134   45.7909   54.7790 H   0  0  0  0  0  0  0  0  0  0  0  0
    0.5888   44.9448   54.0476 H   0  0  0  0  0  0  0  0  0  0  0  0
   -0.5825   41.7668   53.7216 H   0  0  0  0  0  0  0  0  0  0  0  0
   -3.5594   42.9552   50.0668 H   0  0  0  0  0  0  0  0  0  0  0  0
   -2.2655   43.7418   49.1006 H   0  0  0  0  0  0  0  0  0  0  0  0
   -2.4246   41.9526   49.1006 H   0  0  0  0  0  0  0  0  0  0  0  0
    2.5258   42.3698   51.1548 H   0  0  0  0  0  0  0  0  0  0  0  0
    4.7470   43.2058   51.8961 H   0  0  0  0  0  0  0  0  0  0  0  0
    7.8339   47.3831   55.3910 H   0  0  0  0  0  0  0  0  0  0  0  0
  1  2  1  0
  2  3  2  0
  3  4  1  0
  4  5  2  0
  5  6  1  0
  5  7  1  0
  7  8  1  0
  8  9  2  0
  8 10  2  0
  8 11  1  0
 11 12  1  0
 12 13  2  0
 13 14  1  0
 14 15  2  0
 15 16  1  0
 16 17  2  0
 17 18  1  0
 18 19  2  0
 19 20  1  0
 19 21  1  0
 15 22  1  0
 22 23  2  0
  7 24  2  0
 24  2  1  0
 23 12  1  0
 21 16  1  0
  1 25  1  0
  1 26  1  0
  1 27  1  0
  3 28  1  0
  4 29  1  0
  6 30  1  0
  6 31  1  0
  6 32  1  0
 11 33  1  0
 13 34  1  0
 14 35  1  0
 17 36  1  0
 20 37  1  0
 20 38  1  0
 20 39  1  0
 22 40  1  0
 23 41  1  0
 24 42  1  0
M  END
>  <meeko>  (2) 
{"is_sidechain": [false], "free_energy": -8.943, "intermolecular_energy": -11.058, "internal_energy": -0.19}

$$$$
ligand_26_conformer_1_docked
     RDKit          3D

 42 44  0  0  0  0  0  0  0  0999 V2000
    9.3720   47.9130   54.8460 C   0  0  0  0  0  0  0  0  0  0  0  0
    8.9880   47.1350   53.6230 C   0  0  0  0  0  0  0  0  0  0  0  0
    9.9480   46.8320   52.6530 C   0  0  0  0  0  0  0  0  0  0  0  0
    9.5840   46.1520   51.4890 C   0  0  0  0  0  0  0  0  0  0  0  0
    8.2530   45.7660   51.2690 C   0  0  0  0  0  0  0  0  0  0  0  0
    7.9050   45.0340   49.9990 C   0  0  0  0  0  0  0  0  0  0  0  0
    7.2700   46.0950   52.2370 C   0  0  0  0  0  0  0  0  0  0  0  0
    5.5660   45.6670   52.0140 S   0  0  0  0  0  0  0  0  0  0  0  0
    5.0960   46.0910   50.6510 O   0  0  0  0  0  0  0  0  0  0  0  0
    5.4140   44.1770   52.1400 O   0  0  0  0  0  0  0  0  0  0  0  0
    4.6090   46.4730   53.2180 N   0  0  0  0  0  0  0  0  0  0  0  0
    3.3510   45.9720   53.7020 C   0  0  0  0  0  0  0  0  0  0  0  0
    2.2240   46.0300   52.8710 C   0  0  0  0  0  0  0  0  0  0  0  0
    0.9870   45.5510   53.3130 C   0  0  0  0  0  0  0  0  0  0  0  0
    0.8580   44.9920   54.5960 C   0  0  0  0  0  0  0  0  0  0  0  0
   -0.4370   44.4670   55.0860 C   0  0  0  0  0  0  0  0  0  0  0  0
   -1.4180   43.8100   54.3670 C   0  0  0  0  0  0  0  0  0  0  0  0
   -2.4330   43.5020   55.1940 N   0  0  0  0  0  0  0  0  0  0  0  0
   -2.0220   43.9810   56.3870 C   0  0  0  0  0  0  0  0  0  0  0  0
   -2.8390   43.9010   57.6310 C   0  0  0  0  0  0  0  0  0  0  0  0
   -0.8440   44.5570   56.3270 O   0  0  0  0  0  0  0  0  0  0  0  0
    1.9900   44.9210   55.4220 C   0  0  0  0  0  0  0  0  0  0  0  0
    3.2230   45.4030   54.9810 C   0  0  0  0  0  0  0  0  0  0  0  0
    7.6510   46.7770   53.4030 C   0  0  0  0  0  0  0  0  0  0  0  0
    9.0915   47.3447   55.7451 H   0  0  0  0  0  0  0  0  0  0  0  0
   10.4585   48.0850   54.8450 H   0  0  0  0  0  0  0  0  0  0  0  0
    8.8477   48.8800   54.8450 H   0  0  0  0  0  0  0  0  0  0  0  0
   10.9953   47.1307   52.8075 H   0  0  0  0  0  0  0  0  0  0  0  0
   10.3498   45.9161   50.7355 H   0  0  0  0  0  0  0  0  0  0  0  0
    7.4449   44.0663   50.2478 H   0  0  0  0  0  0  0  0  0  0  0  0
    7.1968   45.6362   49.4109 H   0  0  0  0  0  0  0  0  0  0  0  0
    8.8191   44.8650   49.4109 H   0  0  0  0  0  0  0  0  0  0  0  0
    5.0290   47.3170   53.6720 H   0  0  0  0  0  0  0  0  0  0  0  0
    2.3135   46.4566   51.8610 H   0  0  0  0  0  0  0  0  0  0  0  0
    0.1095   45.6120   52.6525 H   0  0  0  0  0  0  0  0  0  0  0  0
   -1.3754   43.5769   53.2928 H   0  0  0  0  0  0  0  0  0  0  0  0
   -2.1785   43.9657   58.5082 H   0  0  0  0  0  0  0  0  0  0  0  0
   -3.5583   44.7330   57.6514 H   0  0  0  0  0  0  0  0  0  0  0  0
   -3.3832   42.9453   57.6514 H   0  0  0  0  0  0  0  0  0  0  0  0
    1.9047   44.4812   56.4267 H   0  0  0  0  0  0  0  0  0  0  0  0
    4.1017   45.3372   55.6394 H   0  0  0  0  0  0  0  0  0  0  0  0
    6.8899   47.0340   54.1544 H   0  0  0  0  0  0  0  0  0  0  0  0
  1  2  1  0
  2  3  2  0
  3  4  1  0
  4  5  2  0
  5  6  1  0
  5  7  1  0
  7  8  1  0
  8  9  2  0
  8 10  2  0
  8 11  1  0
 11 12  1  0
 12 13  2  0
 13 14  1  0
 14 15  2  0
 15 16  1  0
 16 17  2  0
 17 18  1  0
 18 19  2  0
 19 20  1  0
 19 21  1  0
 15 22  1  0
 22 23  2  0
  7 24  2  0
 24  2  1  0
 23 12  1  0
 21 16  1  0
  1 25  1  0
  1 26  1  0
  1 27  1  0
  3 28  1  0
  4 29  1  0
  6 30  1  0
  6 31  1  0
  6 32  1  0
 11 33  1  0
 13 34  1  0
 14 35  1  0
 17 36  1  0
 20 37  1  0
 20 38  1  0
 20 39  1  0
 22 40  1  0
 23 41  1  0
 24 42  1  0
M  END
>  <meeko>  (3) 
{"is_sidechain": [false], "free_energy": -8.89, "intermolecular_energy": -10.914, "internal_energy": -0.269}

$$$$
ligand_26_conformer_1_docked
     RDKit          3D

 42 44  0  0  0  0  0  0  0  0999 V2000
    8.0910   44.4600   49.3970 C   0  0  0  0  0  0  0  0  0  0  0  0
    8.5370   45.2250   50.6070 C   0  0  0  0  0  0  0  0  0  0  0  0
    9.8980   45.4610   50.8280 C   0  0  0  0  0  0  0  0  0  0  0  0
   10.3190   46.1290   51.9800 C   0  0  0  0  0  0  0  0  0  0  0  0
    9.3900   46.5690   52.9350 C   0  0  0  0  0  0  0  0  0  0  0  0
    9.8910   47.2860   54.1620 C   0  0  0  0  0  0  0  0  0  0  0  0
    8.0120   46.3090   52.7290 C   0  0  0  0  0  0  0  0  0  0  0  0
    6.7860   46.8090   53.9060 S   0  0  0  0  0  0  0  0  0  0  0  0
    7.4120   47.6380   54.9910 O   0  0  0  0  0  0  0  0  0  0  0  0
    5.7410   47.6330   53.2050 O   0  0  0  0  0  0  0  0  0  0  0  0
    6.0630   45.3990   54.6170 N   0  0  0  0  0  0  0  0  0  0  0  0
    4.7020   44.9990   54.3830 C   0  0  0  0  0  0  0  0  0  0  0  0
    4.4010   44.2110   53.2630 C   0  0  0  0  0  0  0  0  0  0  0  0
    3.0880   43.8070   53.0090 C   0  0  0  0  0  0  0  0  0  0  0  0
    2.0480   44.1750   53.8800 C   0  0  0  0  0  0  0  0  0  0  0  0
    0.6490   43.7520   53.6410 C   0  0  0  0  0  0  0  0  0  0  0  0
    0.2010   42.6190   52.9900 C   0  0  0  0  0  0  0  0  0  0  0  0
   -1.1440   42.6160   52.9940 N   0  0  0  0  0  0  0  0  0  0  0  0
   -1.4580   43.7490   53.6570 C   0  0  0  0  0  0  0  0  0  0  0  0
   -2.8580   44.2030   53.8930 C   0  0  0  0  0  0  0  0  0  0  0  0
   -0.4000   44.4270   54.0370 O   0  0  0  0  0  0  0  0  0  0  0  0
    2.3520   44.9530   55.0090 C   0  0  0  0  0  0  0  0  0  0  0  0
    3.6630   45.3590   55.2600 C   0  0  0  0  0  0  0  0  0  0  0  0
    7.6020   45.6390   51.5660 C   0  0  0  0  0  0  0  0  0  0  0  0
    7.5604   43.5499   49.7136 H   0  0  0  0  0  0  0  0  0  0  0  0
    7.4168   45.0868   48.7949 H   0  0  0  0  0  0  0  0  0  0  0  0
    8.9686   44.1821   48.7949 H   0  0  0  0  0  0  0  0  0  0  0  0
   10.6398   45.1190   50.0913 H   0  0  0  0  0  0  0  0  0  0  0  0
   11.3917   46.3124   52.1405 H   0  0  0  0  0  0  0  0  0  0  0  0
    9.5292   46.7682   55.0626 H   0  0  0  0  0  0  0  0  0  0  0  0
   10.9910   47.2922   54.1596 H   0  0  0  0  0  0  0  0  0  0  0  0
    9.5185   48.3210   54.1596 H   0  0  0  0  0  0  0  0  0  0  0  0
    6.6920   44.7690   55.1660 H   0  0  0  0  0  0  0  0  0  0  0  0
    5.2064   43.9080   52.5778 H   0  0  0  0  0  0  0  0  0  0  0  0
    2.8665   43.1966   52.1211 H   0  0  0  0  0  0  0  0  0  0  0  0
    0.8406   41.8448   52.5411 H   0  0  0  0  0  0  0  0  0  0  0  0
   -3.0462   44.2640   54.9751 H   0  0  0  0  0  0  0  0  0  0  0  0
   -3.0034   45.1944   53.4391 H   0  0  0  0  0  0  0  0  0  0  0  0
   -3.5575   43.4857   53.4391 H   0  0  0  0  0  0  0  0  0  0  0  0
    1.5490   45.2450   55.7018 H   0  0  0  0  0  0  0  0  0  0  0  0
    3.8857   45.9652   56.1505 H   0  0  0  0  0  0  0  0  0  0  0  0
    6.5330   45.4360   51.4048 H   0  0  0  0  0  0  0  0  0  0  0  0
  1  2  1  0
  2  3  2  0
  3  4  1  0
  4  5  2  0
  5  6  1  0
  5  7  1  0
  7  8  1  0
  8  9  2  0
  8 10  2  0
  8 11  1  0
 11 12  1  0
 12 13  2  0
 13 14  1  0
 14 15  2  0
 15 16  1  0
 16 17  2  0
 17 18  1  0
 18 19  2  0
 19 20  1  0
 19 21  1  0
 15 22  1  0
 22 23  2  0
  7 24  2  0
 24  2  1  0
 23 12  1  0
 21 16  1  0
  1 25  1  0
  1 26  1  0
  1 27  1  0
  3 28  1  0
  4 29  1  0
  6 30  1  0
  6 31  1  0
  6 32  1  0
 11 33  1  0
 13 34  1  0
 14 35  1  0
 17 36  1  0
 20 37  1  0
 20 38  1  0
 20 39  1  0
 22 40  1  0
 23 41  1  0
 24 42  1  0
M  END
>  <meeko>  (4) 
{"is_sidechain": [false], "free_energy": -8.74, "intermolecular_energy": -11.158, "internal_energy": 0.16}

$$$$
ligand_26_conformer_1_docked
     RDKit          3D

 42 44  0  0  0  0  0  0  0  0999 V2000
   10.7410   46.2040   51.4860 C   0  0  0  0  0  0  0  0  0  0  0  0
    9.4970   46.4570   52.2840 C   0  0  0  0  0  0  0  0  0  0  0  0
    9.5810   47.0470   53.5490 C   0  0  0  0  0  0  0  0  0  0  0  0
    8.4300   47.2370   54.3160 C   0  0  0  0  0  0  0  0  0  0  0  0
    7.1730   46.8370   53.8360 C   0  0  0  0  0  0  0  0  0  0  0  0
    5.9580   47.0620   54.6980 C   0  0  0  0  0  0  0  0  0  0  0  0
    7.0860   46.2140   52.5660 C   0  0  0  0  0  0  0  0  0  0  0  0
    5.5380   45.6560   51.9090 S   0  0  0  0  0  0  0  0  0  0  0  0
    4.5330   46.7730   51.9210 O   0  0  0  0  0  0  0  0  0  0  0  0
    5.7430   45.2010   50.4910 O   0  0  0  0  0  0  0  0  0  0  0  0
    4.9400   44.3470   52.8800 N   0  0  0  0  0  0  0  0  0  0  0  0
    3.5730   44.2370   53.3130 C   0  0  0  0  0  0  0  0  0  0  0  0
    3.1460   44.9660   54.4320 C   0  0  0  0  0  0  0  0  0  0  0  0
    1.8240   44.8800   54.8770 C   0  0  0  0  0  0  0  0  0  0  0  0
    0.8970   44.0680   54.2000 C   0  0  0  0  0  0  0  0  0  0  0  0
   -0.5130   43.9660   54.6430 C   0  0  0  0  0  0  0  0  0  0  0  0
   -1.6300   43.6960   53.8750 C   0  0  0  0  0  0  0  0  0  0  0  0
   -2.7150   43.6930   54.6690 N   0  0  0  0  0  0  0  0  0  0  0  0
   -2.2090   43.9550   55.8920 C   0  0  0  0  0  0  0  0  0  0  0  0
   -3.0470   44.0830   57.1180 C   0  0  0  0  0  0  0  0  0  0  0  0
   -0.9070   44.1220   55.8810 O   0  0  0  0  0  0  0  0  0  0  0  0
    1.3210   43.3490   53.0720 C   0  0  0  0  0  0  0  0  0  0  0  0
    2.6420   43.4330   52.6310 C   0  0  0  0  0  0  0  0  0  0  0  0
    8.2510   46.0310   51.8050 C   0  0  0  0  0  0  0  0  0  0  0  0
   11.5861   46.0321   52.1689 H   0  0  0  0  0  0  0  0  0  0  0  0
   10.5958   45.3170   50.8518 H   0  0  0  0  0  0  0  0  0  0  0  0
   10.9538   47.0773   50.8518 H   0  0  0  0  0  0  0  0  0  0  0  0
   10.5587   47.3630   53.9417 H   0  0  0  0  0  0  0  0  0  0  0  0
    8.5091   47.7056   55.3080 H   0  0  0  0  0  0  0  0  0  0  0  0
    6.2458   47.0087   55.7584 H   0  0  0  0  0  0  0  0  0  0  0  0
    5.5341   48.0539   54.4825 H   0  0  0  0  0  0  0  0  0  0  0  0
    5.2070   46.2877   54.4825 H   0  0  0  0  0  0  0  0  0  0  0  0
    5.5990   43.5580   53.0730 H   0  0  0  0  0  0  0  0  0  0  0  0
    3.8589   45.6122   54.9651 H   0  0  0  0  0  0  0  0  0  0  0  0
    1.5068   45.4509   55.7621 H   0  0  0  0  0  0  0  0  0  0  0  0
   -1.6311   43.5132   52.7903 H   0  0  0  0  0  0  0  0  0  0  0  0
   -2.4099   43.9857   58.0094 H   0  0  0  0  0  0  0  0  0  0  0  0
   -3.5392   45.0667   57.1247 H   0  0  0  0  0  0  0  0  0  0  0  0
   -3.8104   43.2910   57.1247 H   0  0  0  0  0  0  0  0  0  0  0  0
    0.6052   42.7132   52.5304 H   0  0  0  0  0  0  0  0  0  0  0  0
    2.9579   42.8660   51.7429 H   0  0  0  0  0  0  0  0  0  0  0  0
    8.1851   45.5468   50.8195 H   0  0  0  0  0  0  0  0  0  0  0  0
  1  2  1  0
  2  3  2  0
  3  4  1  0
  4  5  2  0
  5  6  1  0
  5  7  1  0
  7  8  1  0
  8  9  2  0
  8 10  2  0
  8 11  1  0
 11 12  1  0
 12 13  2  0
 13 14  1  0
 14 15  2  0
 15 16  1  0
 16 17  2  0
 17 18  1  0
 18 19  2  0
 19 20  1  0
 19 21  1  0
 15 22  1  0
 22 23  2  0
  7 24  2  0
 24  2  1  0
 23 12  1  0
 21 16  1  0
  1 25  1  0
  1 26  1  0
  1 27  1  0
  3 28  1  0
  4 29  1  0
  6 30  1  0
  6 31  1  0
  6 32  1  0
 11 33  1  0
 13 34  1  0
 14 35  1  0
 17 36  1  0
 20 37  1  0
 20 38  1  0
 20 39  1  0
 22 40  1  0
 23 41  1  0
 24 42  1  0
M  END
>  <meeko>  (5) 
{"is_sidechain": [false], "free_energy": -8.447, "intermolecular_energy": -10.351, "internal_energy": -0.286}

$$$$
