MODEL 1
REMARK VINA RESULT:    -8.686      0.000      0.000
REMARK INTER + INTRA:         -11.523
REMARK INTER:                 -11.225
REMARK INTRA:                  -0.298
REMARK UNBOUND:                -0.298
REMARK SMILES O=C(CSc1cccc(Br)c1)N1CCc2c(ncn2-c2ccc(F)cc2)C1
REMARK SMILES IDX 1 1 2 2 3 3 4 4 5 5 6 6 11 7 7 8 9 9 8 10 10 11 12 12 13 13
REMARK SMILES IDX 27 14 14 15 16 16 15 17 17 18 19 19 18 20 20 21 21 22 26 23
REMARK SMILES IDX 22 24 25 25 23 26 24 27
REMARK H PARENT
ROOT
ATOM      1  O   UNL     1       3.662  43.033  51.362  1.00  0.00    -0.274 OA
ATOM      2  C   UNL     1       3.973  43.873  52.250  1.00  0.00     0.233 C 
ENDROOT
BRANCH   2   3
ATOM      3  C   UNL     1       5.392  44.361  52.312  1.00  0.00     0.175 C 
BRANCH   3   4
ATOM      4  S   UNL     1       5.656  45.627  51.027  1.00  0.00    -0.116 SA
BRANCH   4   5
ATOM      5  C   UNL     1       7.352  45.942  51.517  1.00  0.00     0.009 A 
ATOM      6  C   UNL     1       8.409  45.504  50.711  1.00  0.00     0.015 A 
ATOM      7  C   UNL     1       7.620  46.628  52.708  1.00  0.00     0.030 A 
ATOM      8  C   UNL     1       9.731  45.745  51.098  1.00  0.00     0.002 A 
ATOM      9  C   UNL     1       8.943  46.871  53.095  1.00  0.00     0.019 A 
ATOM     10  C   UNL     1       9.999  46.429  52.289  1.00  0.00     0.016 A 
ATOM     11  Br  UNL     1       9.307  47.805  54.720  1.00  0.00    -0.051 Br
ENDBRANCH   4   5
ENDBRANCH   3   4
ENDBRANCH   2   3
BRANCH   2  12
ATOM     12  N   UNL     1       2.955  44.371  53.141  1.00  0.00    -0.336 N 
ATOM     13  C   UNL     1       3.114  45.688  53.796  1.00  0.00     0.126 C 
ATOM     14  C   UNL     1       1.663  43.655  53.167  1.00  0.00     0.177 C 
ATOM     15  C   UNL     1       2.530  45.692  55.217  1.00  0.00     0.078 C 
ATOM     16  C   UNL     1       0.786  44.146  54.273  1.00  0.00     0.081 A 
ATOM     17  C   UNL     1       1.173  45.065  55.204  1.00  0.00     0.049 A 
ATOM     18  N   UNL     1      -0.489  43.770  54.494  1.00  0.00    -0.239 NA
ATOM     19  N   UNL     1       0.147  45.277  56.049  1.00  0.00    -0.303 N 
ATOM     20  C   UNL     1      -0.849  44.487  55.584  1.00  0.00     0.205 A 
BRANCH  19  21
ATOM     21  C   UNL     1       0.079  46.159  57.185  1.00  0.00     0.047 A 
ATOM     22  C   UNL     1      -1.075  46.920  57.437  1.00  0.00     0.029 A 
ATOM     23  C   UNL     1       1.187  46.292  58.040  1.00  0.00     0.029 A 
ATOM     24  C   UNL     1      -1.127  47.781  58.536  1.00  0.00     0.041 A 
ATOM     25  C   UNL     1       1.131  47.153  59.140  1.00  0.00     0.041 A 
ATOM     26  C   UNL     1      -0.026  47.896  59.390  1.00  0.00     0.123 A 
ATOM     27  F   UNL     1      -0.078  48.735  60.454  1.00  0.00    -0.207 F 
ENDBRANCH  19  21
ENDBRANCH   2  12
TORSDOF 5
ENDMDL
MODEL 2
REMARK VINA RESULT:    -8.570      4.320      7.996
REMARK INTER + INTRA:         -11.373
REMARK INTER:                 -10.599
REMARK INTRA:                  -0.774
REMARK UNBOUND:                -0.298
REMARK SMILES O=C(CSc1cccc(Br)c1)N1CCc2c(ncn2-c2ccc(F)cc2)C1
REMARK SMILES IDX 1 1 2 2 3 3 4 4 5 5 6 6 11 7 7 8 9 9 8 10 10 11 12 12 13 13
REMARK SMILES IDX 27 14 14 15 16 16 15 17 17 18 19 19 18 20 20 21 21 22 26 23
REMARK SMILES IDX 22 24 25 25 23 26 24 27
REMARK H PARENT
ROOT
ATOM      1  O   UNL     1       1.842  42.313  50.447  1.00  0.00    -0.274 OA
ATOM      2  C   UNL     1       1.509  43.347  51.090  1.00  0.00     0.233 C 
ENDROOT
BRANCH   2   3
ATOM      3  C   UNL     1       0.088  43.475  51.560  1.00  0.00     0.175 C 
BRANCH   3   4
ATOM      4  S   UNL     1      -0.220  42.271  52.893  1.00  0.00    -0.116 SA
BRANCH   4   5
ATOM      5  C   UNL     1      -0.146  43.507  54.189  1.00  0.00     0.009 A 
ATOM      6  C   UNL     1       1.092  43.980  54.640  1.00  0.00     0.015 A 
ATOM      7  C   UNL     1      -1.329  44.001  54.753  1.00  0.00     0.030 A 
ATOM      8  C   UNL     1       1.148  44.939  55.656  1.00  0.00     0.002 A 
ATOM      9  C   UNL     1      -1.274  44.962  55.770  1.00  0.00     0.019 A 
ATOM     10  C   UNL     1      -0.034  45.431  56.220  1.00  0.00     0.016 A 
ATOM     11  Br  UNL     1      -2.888  45.633  56.538  1.00  0.00    -0.051 Br
ENDBRANCH   4   5
ENDBRANCH   3   4
ENDBRANCH   2   3
BRANCH   2  12
ATOM     12  N   UNL     1       2.505  44.345  51.390  1.00  0.00    -0.336 N 
ATOM     13  C   UNL     1       3.902  44.166  50.937  1.00  0.00     0.126 C 
ATOM     14  C   UNL     1       2.034  45.640  51.921  1.00  0.00     0.177 C 
ATOM     15  C   UNL     1       4.908  44.723  51.957  1.00  0.00     0.078 C 
ATOM     16  C   UNL     1       3.173  46.494  52.378  1.00  0.00     0.081 A 
ATOM     17  C   UNL     1       4.473  46.083  52.398  1.00  0.00     0.049 A 
ATOM     18  N   UNL     1       3.080  47.766  52.811  1.00  0.00    -0.239 NA
ATOM     19  N   UNL     1       5.233  47.092  52.865  1.00  0.00    -0.303 N 
ATOM     20  C   UNL     1       4.361  48.101  53.094  1.00  0.00     0.205 A 
BRANCH  19  21
ATOM     21  C   UNL     1       6.659  47.133  53.062  1.00  0.00     0.047 A 
ATOM     22  C   UNL     1       7.207  47.079  54.356  1.00  0.00     0.029 A 
ATOM     23  C   UNL     1       7.520  47.262  51.959  1.00  0.00     0.029 A 
ATOM     24  C   UNL     1       8.592  47.131  54.538  1.00  0.00     0.041 A 
ATOM     25  C   UNL     1       8.904  47.311  52.145  1.00  0.00     0.041 A 
ATOM     26  C   UNL     1       9.441  47.243  53.433  1.00  0.00     0.123 A 
ATOM     27  F   UNL     1      10.784  47.296  53.614  1.00  0.00    -0.207 F 
ENDBRANCH  19  21
ENDBRANCH   2  12
TORSDOF 5
ENDMDL
MODEL 3
REMARK VINA RESULT:    -8.391      3.486      4.969
REMARK INTER + INTRA:         -11.142
REMARK INTER:                 -10.390
REMARK INTRA:                  -0.753
REMARK UNBOUND:                -0.298
REMARK SMILES O=C(CSc1cccc(Br)c1)N1CCc2c(ncn2-c2ccc(F)cc2)C1
REMARK SMILES IDX 1 1 2 2 3 3 4 4 5 5 6 6 11 7 7 8 9 9 8 10 10 11 12 12 13 13
REMARK SMILES IDX 27 14 14 15 16 16 15 17 17 18 19 19 18 20 20 21 21 22 26 23
REMARK SMILES IDX 22 24 25 25 23 26 24 27
REMARK H PARENT
ROOT
ATOM      1  O   UNL     1       5.792  44.555  55.250  1.00  0.00    -0.274 OA
ATOM      2  C   UNL     1       4.987  45.427  54.822  1.00  0.00     0.233 C 
ENDROOT
BRANCH   2   3
ATOM      3  C   UNL     1       5.498  46.818  54.575  1.00  0.00     0.175 C 
BRANCH   3   4
ATOM      4  S   UNL     1       5.685  47.086  52.783  1.00  0.00    -0.116 SA
BRANCH   4   5
ATOM      5  C   UNL     1       7.474  46.981  52.832  1.00  0.00     0.009 A 
ATOM      6  C   UNL     1       8.188  46.616  51.685  1.00  0.00     0.015 A 
ATOM      7  C   UNL     1       8.159  47.265  54.020  1.00  0.00     0.030 A 
ATOM      8  C   UNL     1       9.583  46.527  51.727  1.00  0.00     0.002 A 
ATOM      9  C   UNL     1       9.556  47.178  54.062  1.00  0.00     0.019 A 
ATOM     10  C   UNL     1      10.268  46.809  52.915  1.00  0.00     0.016 A 
ATOM     11  Br  UNL     1      10.488  47.564  55.683  1.00  0.00    -0.051 Br
ENDBRANCH   4   5
ENDBRANCH   3   4
ENDBRANCH   2   3
BRANCH   2  12
ATOM     12  N   UNL     1       3.623  45.055  54.542  1.00  0.00    -0.336 N 
ATOM     13  C   UNL     1       3.301  44.236  53.353  1.00  0.00     0.126 C 
ATOM     14  C   UNL     1       2.620  45.292  55.601  1.00  0.00     0.177 C 
ATOM     15  C   UNL     1       1.953  44.635  52.733  1.00  0.00     0.078 C 
ATOM     16  C   UNL     1       1.230  45.056  55.104  1.00  0.00     0.081 A 
ATOM     17  C   UNL     1       0.923  44.760  53.809  1.00  0.00     0.049 A 
ATOM     18  N   UNL     1       0.110  45.084  55.853  1.00  0.00    -0.239 NA
ATOM     19  N   UNL     1      -0.412  44.612  53.709  1.00  0.00    -0.303 N 
ATOM     20  C   UNL     1      -0.873  44.803  54.967  1.00  0.00     0.205 A 
BRANCH  19  21
ATOM     21  C   UNL     1      -1.201  44.295  52.547  1.00  0.00     0.047 A 
ATOM     22  C   UNL     1      -1.441  42.959  52.183  1.00  0.00     0.029 A 
ATOM     23  C   UNL     1      -1.715  45.326  51.742  1.00  0.00     0.029 A 
ATOM     24  C   UNL     1      -2.198  42.662  51.047  1.00  0.00     0.041 A 
ATOM     25  C   UNL     1      -2.475  45.026  50.608  1.00  0.00     0.041 A 
ATOM     26  C   UNL     1      -2.719  43.694  50.261  1.00  0.00     0.123 A 
ATOM     27  F   UNL     1      -3.452  43.403  49.158  1.00  0.00    -0.207 F 
ENDBRANCH  19  21
ENDBRANCH   2  12
TORSDOF 5
ENDMDL
MODEL 4
REMARK VINA RESULT:    -8.383      4.206      8.257
REMARK INTER + INTRA:         -11.131
REMARK INTER:                 -10.287
REMARK INTRA:                  -0.845
REMARK UNBOUND:                -0.298
REMARK SMILES O=C(CSc1cccc(Br)c1)N1CCc2c(ncn2-c2ccc(F)cc2)C1
REMARK SMILES IDX 1 1 2 2 3 3 4 4 5 5 6 6 11 7 7 8 9 9 8 10 10 11 12 12 13 13
REMARK SMILES IDX 27 14 14 15 16 16 15 17 17 18 19 19 18 20 20 21 21 22 26 23
REMARK SMILES IDX 22 24 25 25 23 26 24 27
REMARK H PARENT
ROOT
ATOM      1  O   UNL     1       1.626  42.372  50.362  1.00  0.00    -0.274 OA
ATOM      2  C   UNL     1       1.634  43.000  51.456  1.00  0.00     0.233 C 
ENDROOT
BRANCH   2   3
ATOM      3  C   UNL     1       0.644  42.609  52.516  1.00  0.00     0.175 C 
BRANCH   3   4
ATOM      4  S   UNL     1      -1.043  42.989  51.941  1.00  0.00    -0.116 SA
BRANCH   4   5
ATOM      5  C   UNL     1      -1.478  43.885  53.432  1.00  0.00     0.009 A 
ATOM      6  C   UNL     1      -2.801  44.285  53.651  1.00  0.00     0.015 A 
ATOM      7  C   UNL     1      -0.491  44.186  54.381  1.00  0.00     0.030 A 
ATOM      8  C   UNL     1      -3.137  44.990  54.811  1.00  0.00     0.002 A 
ATOM      9  C   UNL     1      -0.827  44.890  55.543  1.00  0.00     0.019 A 
ATOM     10  C   UNL     1      -2.151  45.292  55.758  1.00  0.00     0.016 A 
ATOM     11  Br  UNL     1       0.518  45.301  56.833  1.00  0.00    -0.051 Br
ENDBRANCH   4   5
ENDBRANCH   3   4
ENDBRANCH   2   3
BRANCH   2  12
ATOM     12  N   UNL     1       2.614  44.034  51.671  1.00  0.00    -0.336 N 
ATOM     13  C   UNL     1       4.006  43.854  51.204  1.00  0.00     0.126 C 
ATOM     14  C   UNL     1       2.126  45.352  52.126  1.00  0.00     0.177 C 
ATOM     15  C   UNL     1       5.018  44.495  52.165  1.00  0.00     0.078 C 
ATOM     16  C   UNL     1       3.255  46.256  52.505  1.00  0.00     0.081 A 
ATOM     17  C   UNL     1       4.564  45.873  52.526  1.00  0.00     0.049 A 
ATOM     18  N   UNL     1       3.144  47.552  52.856  1.00  0.00    -0.239 NA
ATOM     19  N   UNL     1       5.311  46.925  52.911  1.00  0.00    -0.303 N 
ATOM     20  C   UNL     1       4.422  47.929  53.091  1.00  0.00     0.205 A 
BRANCH  19  21
ATOM     21  C   UNL     1       6.739  47.007  53.077  1.00  0.00     0.047 A 
ATOM     22  C   UNL     1       7.593  47.035  51.961  1.00  0.00     0.029 A 
ATOM     23  C   UNL     1       7.298  47.026  54.367  1.00  0.00     0.029 A 
ATOM     24  C   UNL     1       8.978  47.102  52.133  1.00  0.00     0.041 A 
ATOM     25  C   UNL     1       8.684  47.096  54.535  1.00  0.00     0.041 A 
ATOM     26  C   UNL     1       9.524  47.136  53.420  1.00  0.00     0.123 A 
ATOM     27  F   UNL     1      10.869  47.200  53.584  1.00  0.00    -0.207 F 
ENDBRANCH  19  21
ENDBRANCH   2  12
TORSDOF 5
ENDMDL
MODEL 5
REMARK VINA RESULT:    -8.330      2.062      2.486
REMARK INTER + INTRA:         -11.063
REMARK INTER:                 -10.429
REMARK INTRA:                  -0.634
REMARK UNBOUND:                -0.298
REMARK SMILES O=C(CSc1cccc(Br)c1)N1CCc2c(ncn2-c2ccc(F)cc2)C1
REMARK SMILES IDX 1 1 2 2 3 3 4 4 5 5 6 6 11 7 7 8 9 9 8 10 10 11 12 12 13 13
REMARK SMILES IDX 27 14 14 15 16 16 15 17 17 18 19 19 18 20 20 21 21 22 26 23
REMARK SMILES IDX 22 24 25 25 23 26 24 27
REMARK H PARENT
ROOT
ATOM      1  O   UNL     1       5.680  44.366  54.664  1.00  0.00    -0.274 OA
ATOM      2  C   UNL     1       4.905  44.657  53.712  1.00  0.00     0.233 C 
ENDROOT
BRANCH   2   3
ATOM      3  C   UNL     1       5.497  44.925  52.358  1.00  0.00     0.175 C 
BRANCH   3   4
ATOM      4  S   UNL     1       5.724  46.720  52.140  1.00  0.00    -0.116 SA
BRANCH   4   5
ATOM      5  C   UNL     1       7.502  46.643  52.358  1.00  0.00     0.009 A 
ATOM      6  C   UNL     1       8.316  46.154  51.329  1.00  0.00     0.015 A 
ATOM      7  C   UNL     1       8.079  47.072  53.560  1.00  0.00     0.030 A 
ATOM      8  C   UNL     1       9.701  46.088  51.504  1.00  0.00     0.002 A 
ATOM      9  C   UNL     1       9.466  47.008  53.735  1.00  0.00     0.019 A 
ATOM     10  C   UNL     1      10.277  46.515  52.706  1.00  0.00     0.016 A 
ATOM     11  Br  UNL     1      10.250  47.592  55.375  1.00  0.00    -0.051 Br
ENDBRANCH   4   5
ENDBRANCH   3   4
ENDBRANCH   2   3
BRANCH   2  12
ATOM     12  N   UNL     1       3.482  44.679  53.941  1.00  0.00    -0.336 N 
ATOM     13  C   UNL     1       2.902  45.586  54.955  1.00  0.00     0.126 C 
ATOM     14  C   UNL     1       2.624  43.973  52.966  1.00  0.00     0.177 C 
ATOM     15  C   UNL     1       1.697  44.951  55.666  1.00  0.00     0.078 C 
ATOM     16  C   UNL     1       1.206  43.901  53.434  1.00  0.00     0.081 A 
ATOM     17  C   UNL     1       0.782  44.340  54.654  1.00  0.00     0.049 A 
ATOM     18  N   UNL     1       0.166  43.418  52.726  1.00  0.00    -0.239 NA
ATOM     19  N   UNL     1      -0.544  44.125  54.748  1.00  0.00    -0.303 N 
ATOM     20  C   UNL     1      -0.888  43.577  53.560  1.00  0.00     0.205 A 
BRANCH  19  21
ATOM     21  C   UNL     1      -1.432  44.423  55.842  1.00  0.00     0.047 A 
ATOM     22  C   UNL     1      -1.604  45.744  56.289  1.00  0.00     0.029 A 
ATOM     23  C   UNL     1      -2.115  43.384  56.498  1.00  0.00     0.029 A 
ATOM     24  C   UNL     1      -2.459  46.022  57.358  1.00  0.00     0.041 A 
ATOM     25  C   UNL     1      -2.972  43.666  57.566  1.00  0.00     0.041 A 
ATOM     26  C   UNL     1      -3.146  44.984  57.995  1.00  0.00     0.123 A 
ATOM     27  F   UNL     1      -3.974  45.257  59.034  1.00  0.00    -0.207 F 
ENDBRANCH  19  21
ENDBRANCH   2  12
TORSDOF 5
ENDMDL
