ligand_72_conformer_5_docked
     RDKit          3D

 54 56  0  0  0  0  0  0  0  0999 V2000
    3.8450   39.6920   43.9680 C   0  0  0  0  0  0  0  0  0  0  0  0
    3.2770   39.9780   45.2440 O   0  0  0  0  0  0  0  0  0  0  0  0
    3.9810   40.5420   46.3190 C   0  0  0  0  0  0  0  0  0  0  0  0
    3.5740   40.2230   47.6160 C   0  0  0  0  0  0  0  0  0  0  0  0
    4.2170   40.7800   48.7260 C   0  0  0  0  0  0  0  0  0  0  0  0
    5.2740   41.6980   48.5520 C   0  0  0  0  0  0  0  0  0  0  0  0
    6.0300   42.3050   49.7260 C   0  0  2  0  0  0  0  0  0  0  0  0
    5.1750   43.2800   50.4050 N   0  0  0  0  0  0  0  0  0  0  0  0
    4.2260   42.9010   51.4190 C   0  0  0  0  0  0  0  0  0  0  0  0
    4.2590   41.7430   51.9250 O   0  0  0  0  0  0  0  0  0  0  0  0
    3.2000   43.8640   51.8720 C   0  0  0  0  0  0  0  0  0  0  0  0
    1.9850   43.9490   51.1700 C   0  0  0  0  0  0  0  0  0  0  0  0
    0.9940   44.8440   51.5830 C   0  0  0  0  0  0  0  0  0  0  0  0
    1.1980   45.6520   52.7030 C   0  0  0  0  0  0  0  0  0  0  0  0
    2.3950   45.5700   53.4150 C   0  0  0  0  0  0  0  0  0  0  0  0
    3.4010   44.6790   53.0110 C   0  0  0  0  0  0  0  0  0  0  0  0
    4.9240   44.6100   53.9730 S   0  0  0  0  0  0  0  0  0  0  0  0
    5.4460   46.3240   53.5850 C   0  0  0  0  0  0  0  0  0  0  0  0
    6.4160   46.3940   52.4340 C   0  0  0  0  0  0  0  0  0  0  0  0
    6.0160   46.1990   51.2530 O   0  0  0  0  0  0  0  0  0  0  0  0
    7.8190   46.6300   52.6760 N   0  0  0  0  0  0  0  0  0  0  0  0
    8.8110   46.6470   51.6150 C   0  0  0  0  0  0  0  0  0  0  0  0
   10.1660   46.6860   52.3190 C   0  0  0  0  0  0  0  0  0  0  0  0
    9.8760   47.0840   53.7690 C   0  0  0  0  0  0  0  0  0  0  0  0
    8.4050   46.7600   54.0010 C   0  0  0  0  0  0  0  0  0  0  0  0
    7.3800   42.9480   49.3520 C   0  0  0  0  0  0  0  0  0  0  0  0
    7.4010   44.2910   49.6720 F   0  0  0  0  0  0  0  0  0  0  0  0
    8.4040   42.3170   50.0440 F   0  0  0  0  0  0  0  0  0  0  0  0
    5.7000   41.9920   47.2460 C   0  0  0  0  0  0  0  0  0  0  0  0
    5.0640   41.4210   46.1390 C   0  0  0  0  0  0  0  0  0  0  0  0
    4.8201   39.2010   44.1024 H   0  0  0  0  0  0  0  0  0  0  0  0
    3.1726   39.0250   43.4085 H   0  0  0  0  0  0  0  0  0  0  0  0
    3.9805   40.6294   43.4085 H   0  0  0  0  0  0  0  0  0  0  0  0
    2.7373   39.5250   47.7666 H   0  0  0  0  0  0  0  0  0  0  0  0
    3.8967   40.5007   49.7406 H   0  0  0  0  0  0  0  0  0  0  0  0
    6.2798   41.4698   50.3968 H   0  0  0  0  0  0  0  0  0  0  0  0
    5.1080   44.2400   49.9990 H   0  0  0  0  0  0  0  0  0  0  0  0
    1.8135   43.3086   50.2922 H   0  0  0  0  0  0  0  0  0  0  0  0
    0.0495   44.9120   51.0232 H   0  0  0  0  0  0  0  0  0  0  0  0
    0.4144   46.3539   53.0244 H   0  0  0  0  0  0  0  0  0  0  0  0
    2.5510   46.2073   54.2979 H   0  0  0  0  0  0  0  0  0  0  0  0
    4.5534   46.9134   53.3284 H   0  0  0  0  0  0  0  0  0  0  0  0
    5.9577   46.7228   54.4733 H   0  0  0  0  0  0  0  0  0  0  0  0
    8.7261   45.7419   50.9957 H   0  0  0  0  0  0  0  0  0  0  0  0
    8.6756   47.5092   50.9454 H   0  0  0  0  0  0  0  0  0  0  0  0
   10.6444   45.6962   52.2826 H   0  0  0  0  0  0  0  0  0  0  0  0
   10.8516   47.3972   51.8350 H   0  0  0  0  0  0  0  0  0  0  0  0
   10.5090   46.5066   54.4588 H   0  0  0  0  0  0  0  0  0  0  0  0
   10.0897   48.1481   53.9477 H   0  0  0  0  0  0  0  0  0  0  0  0
    8.3029   45.8182   54.5600 H   0  0  0  0  0  0  0  0  0  0  0  0
    7.9047   47.5411   54.5923 H   0  0  0  0  0  0  0  0  0  0  0  0
    7.5169   42.8356   48.2664 H   0  0  0  0  0  0  0  0  0  0  0  0
    6.5444   42.6800   47.0921 H   0  0  0  0  0  0  0  0  0  0  0  0
    5.4122   41.6604   45.1234 H   0  0  0  0  0  0  0  0  0  0  0  0
  1  2  1  0
  2  3  1  0
  3  4  2  0
  4  5  1  0
  5  6  2  0
  6  7  1  0
  7  8  1  0
  8  9  1  0
  9 10  2  0
  9 11  1  0
 11 12  2  0
 12 13  1  0
 13 14  2  0
 14 15  1  0
 15 16  2  0
 16 17  1  0
 17 18  1  0
 18 19  1  0
 19 20  2  0
 19 21  1  0
 21 22  1  0
 22 23  1  0
 23 24  1  0
 24 25  1  0
  7 26  1  0
 26 27  1  0
 26 28  1  0
  6 29  1  0
 29 30  2  0
 30  3  1  0
 16 11  1  0
 25 21  1  0
  1 31  1  0
  1 32  1  0
  1 33  1  0
  4 34  1  0
  5 35  1  0
  7 36  1  1
  8 37  1  0
 12 38  1  0
 13 39  1  0
 14 40  1  0
 15 41  1  0
 18 42  1  0
 18 43  1  0
 22 44  1  0
 22 45  1  0
 23 46  1  0
 23 47  1  0
 24 48  1  0
 24 49  1  0
 25 50  1  0
 25 51  1  0
 26 52  1  0
 29 53  1  0
 30 54  1  0
M  END
>  <meeko>  (1) 
{"is_sidechain": [false], "free_energy": -8.298, "intermolecular_energy": -12.179, "internal_energy": -1.553}

$$$$
ligand_72_conformer_5_docked
     RDKit          3D

 54 56  0  0  0  0  0  0  0  0999 V2000
   10.7020   47.8220   56.2300 C   0  0  0  0  0  0  0  0  0  0  0  0
   10.7000   47.3950   54.8690 O   0  0  0  0  0  0  0  0  0  0  0  0
    9.5430   47.1310   54.1200 C   0  0  0  0  0  0  0  0  0  0  0  0
    9.6640   47.0140   52.7340 C   0  0  0  0  0  0  0  0  0  0  0  0
    8.5410   46.7840   51.9340 C   0  0  0  0  0  0  0  0  0  0  0  0
    7.2580   46.6920   52.5140 C   0  0  0  0  0  0  0  0  0  0  0  0
    6.0090   46.4060   51.6910 C   0  0  2  0  0  0  0  0  0  0  0  0
    5.0030   45.7650   52.5400 N   0  0  0  0  0  0  0  0  0  0  0  0
    3.7570   46.4020   52.8780 C   0  0  0  0  0  0  0  0  0  0  0  0
    3.3850   47.4430   52.2660 O   0  0  0  0  0  0  0  0  0  0  0  0
    2.9060   45.8440   53.9490 C   0  0  0  0  0  0  0  0  0  0  0  0
    3.1070   46.2680   55.2740 C   0  0  0  0  0  0  0  0  0  0  0  0
    2.3100   45.7650   56.3050 C   0  0  0  0  0  0  0  0  0  0  0  0
    1.2980   44.8440   56.0250 C   0  0  0  0  0  0  0  0  0  0  0  0
    1.0800   44.4230   54.7130 C   0  0  0  0  0  0  0  0  0  0  0  0
    1.8740   44.9170   53.6680 C   0  0  0  0  0  0  0  0  0  0  0  0
    1.5420   44.3430   51.9920 S   0  0  0  0  0  0  0  0  0  0  0  0
    2.1710   42.6420   52.2690 C   0  0  0  0  0  0  0  0  0  0  0  0
    3.6390   42.5040   51.9600 C   0  0  0  0  0  0  0  0  0  0  0  0
    4.5000   43.0160   52.7270 O   0  0  0  0  0  0  0  0  0  0  0  0
    4.0710   41.8320   50.7590 N   0  0  0  0  0  0  0  0  0  0  0  0
    5.4680   41.7200   50.3760 C   0  0  0  0  0  0  0  0  0  0  0  0
    5.4620   41.1630   48.9540 C   0  0  0  0  0  0  0  0  0  0  0  0
    4.0530   40.6120   48.7240 C   0  0  0  0  0  0  0  0  0  0  0  0
    3.1640   41.3010   49.7530 C   0  0  0  0  0  0  0  0  0  0  0  0
    6.2570   45.5620   50.4260 C   0  0  0  0  0  0  0  0  0  0  0  0
    7.2170   44.5950   50.6490 F   0  0  0  0  0  0  0  0  0  0  0  0
    5.0800   44.9320   50.0480 F   0  0  0  0  0  0  0  0  0  0  0  0
    7.1450   46.7790   53.9110 C   0  0  0  0  0  0  0  0  0  0  0  0
    8.2730   46.9940   54.7090 C   0  0  0  0  0  0  0  0  0  0  0  0
   10.6979   46.9422   56.8903 H   0  0  0  0  0  0  0  0  0  0  0  0
   11.6030   48.4223   56.4246 H   0  0  0  0  0  0  0  0  0  0  0  0
    9.8067   48.4307   56.4246 H   0  0  0  0  0  0  0  0  0  0  0  0
   10.6553   47.1039   52.2658 H   0  0  0  0  0  0  0  0  0  0  0  0
    8.6582   46.6741   50.8458 H   0  0  0  0  0  0  0  0  0  0  0  0
    5.6502   47.3796   51.3258 H   0  0  0  0  0  0  0  0  0  0  0  0
    5.2860   44.9140   53.0770 H   0  0  0  0  0  0  0  0  0  0  0  0
    3.8963   47.0000   55.5003 H   0  0  0  0  0  0  0  0  0  0  0  0
    2.4799   46.0952   57.3404 H   0  0  0  0  0  0  0  0  0  0  0  0
    0.6724   44.4503   56.8396 H   0  0  0  0  0  0  0  0  0  0  0  0
    0.2804   43.6991   54.4969 H   0  0  0  0  0  0  0  0  0  0  0  0
    2.0072   42.3742   53.3233 H   0  0  0  0  0  0  0  0  0  0  0  0
    1.6252   41.9725   51.5880 H   0  0  0  0  0  0  0  0  0  0  0  0
    5.9527   42.7072   50.3994 H   0  0  0  0  0  0  0  0  0  0  0  0
    6.0275   41.0700   51.0648 H   0  0  0  0  0  0  0  0  0  0  0  0
    5.6835   41.9608   48.2299 H   0  0  0  0  0  0  0  0  0  0  0  0
    6.2265   40.3830   48.8231 H   0  0  0  0  0  0  0  0  0  0  0  0
    3.7118   40.8464   47.7049 H   0  0  0  0  0  0  0  0  0  0  0  0
    4.0238   39.5177   48.8320 H   0  0  0  0  0  0  0  0  0  0  0  0
    2.5923   42.1149   49.2832 H   0  0  0  0  0  0  0  0  0  0  0  0
    2.4325   40.6056   50.1903 H   0  0  0  0  0  0  0  0  0  0  0  0
    6.6075   46.2393   49.6333 H   0  0  0  0  0  0  0  0  0  0  0  0
    6.1569   46.6768   54.3834 H   0  0  0  0  0  0  0  0  0  0  0  0
    8.1667   47.0563   55.8021 H   0  0  0  0  0  0  0  0  0  0  0  0
  1  2  1  0
  2  3  1  0
  3  4  2  0
  4  5  1  0
  5  6  2  0
  6  7  1  0
  7  8  1  0
  8  9  1  0
  9 10  2  0
  9 11  1  0
 11 12  2  0
 12 13  1  0
 13 14  2  0
 14 15  1  0
 15 16  2  0
 16 17  1  0
 17 18  1  0
 18 19  1  0
 19 20  2  0
 19 21  1  0
 21 22  1  0
 22 23  1  0
 23 24  1  0
 24 25  1  0
  7 26  1  0
 26 27  1  0
 26 28  1  0
  6 29  1  0
 29 30  2  0
 30  3  1  0
 16 11  1  0
 25 21  1  0
  1 31  1  0
  1 32  1  0
  1 33  1  0
  4 34  1  0
  5 35  1  0
  7 36  1  6
  8 37  1  0
 12 38  1  0
 13 39  1  0
 14 40  1  0
 15 41  1  0
 18 42  1  0
 18 43  1  0
 22 44  1  0
 22 45  1  0
 23 46  1  0
 23 47  1  0
 24 48  1  0
 24 49  1  0
 25 50  1  0
 25 51  1  0
 26 52  1  0
 29 53  1  0
 30 54  1  0
M  END
>  <meeko>  (2) 
{"is_sidechain": [false], "free_energy": -8.282, "intermolecular_energy": -11.867, "internal_energy": -1.841}

$$$$
ligand_72_conformer_5_docked
     RDKit          3D

 54 56  0  0  0  0  0  0  0  0999 V2000
   -2.1290   43.7120   56.1200 C   0  0  0  0  0  0  0  0  0  0  0  0
   -1.6250   43.9600   54.8090 O   0  0  0  0  0  0  0  0  0  0  0  0
   -0.3750   44.5370   54.5350 C   0  0  0  0  0  0  0  0  0  0  0  0
   -0.0690   44.8520   53.2100 C   0  0  0  0  0  0  0  0  0  0  0  0
    1.1740   45.3980   52.8720 C   0  0  0  0  0  0  0  0  0  0  0  0
    2.1520   45.6140   53.8660 C   0  0  0  0  0  0  0  0  0  0  0  0
    3.5060   46.2400   53.5560 C   0  0  2  0  0  0  0  0  0  0  0  0
    4.3670   45.2440   52.9170 N   0  0  0  0  0  0  0  0  0  0  0  0
    4.4580   45.1040   51.4870 C   0  0  0  0  0  0  0  0  0  0  0  0
    3.9730   45.9890   50.7260 O   0  0  0  0  0  0  0  0  0  0  0  0
    5.1150   43.9190   50.8980 C   0  0  0  0  0  0  0  0  0  0  0  0
    4.5000   42.6620   51.0260 C   0  0  0  0  0  0  0  0  0  0  0  0
    5.0940   41.5260   50.4700 C   0  0  0  0  0  0  0  0  0  0  0  0
    6.2980   41.6330   49.7710 C   0  0  0  0  0  0  0  0  0  0  0  0
    6.9130   42.8770   49.6260 C   0  0  0  0  0  0  0  0  0  0  0  0
    6.3310   44.0250   50.1820 C   0  0  0  0  0  0  0  0  0  0  0  0
    7.1670   45.6060   49.9570 S   0  0  0  0  0  0  0  0  0  0  0  0
    8.0890   45.5370   51.5410 C   0  0  0  0  0  0  0  0  0  0  0  0
    7.7090   46.6460   52.4880 C   0  0  0  0  0  0  0  0  0  0  0  0
    6.6350   47.2850   52.3190 O   0  0  0  0  0  0  0  0  0  0  0  0
    8.5950   47.0210   53.5620 N   0  0  0  0  0  0  0  0  0  0  0  0
    8.3140   48.1210   54.4700 C   0  0  0  0  0  0  0  0  0  0  0  0
    9.5930   48.3230   55.2800 C   0  0  0  0  0  0  0  0  0  0  0  0
   10.4320   47.0620   55.0640 C   0  0  0  0  0  0  0  0  0  0  0  0
    9.9040   46.4260   53.7830 C   0  0  0  0  0  0  0  0  0  0  0  0
    4.2170   46.8570   54.7760 C   0  0  0  0  0  0  0  0  0  0  0  0
    5.4430   46.2610   54.9960 F   0  0  0  0  0  0  0  0  0  0  0  0
    4.4220   48.2120   54.5590 F   0  0  0  0  0  0  0  0  0  0  0  0
    1.8280   45.3250   55.2010 C   0  0  0  0  0  0  0  0  0  0  0  0
    0.5790   44.7930   55.5370 C   0  0  0  0  0  0  0  0  0  0  0  0
   -1.4032   44.0691   56.8655 H   0  0  0  0  0  0  0  0  0  0  0  0
   -3.0828   44.2437   56.2528 H   0  0  0  0  0  0  0  0  0  0  0  0
   -2.2897   42.6319   56.2528 H   0  0  0  0  0  0  0  0  0  0  0  0
   -0.8143   44.6687   52.4220 H   0  0  0  0  0  0  0  0  0  0  0  0
    1.3901   45.6603   51.8258 H   0  0  0  0  0  0  0  0  0  0  0  0
    3.3098   47.0818   52.8756 H   0  0  0  0  0  0  0  0  0  0  0  0
    4.7660   44.4850   53.5150 H   0  0  0  0  0  0  0  0  0  0  0  0
    3.5462   42.5719   51.5666 H   0  0  0  0  0  0  0  0  0  0  0  0
    4.6114   40.5440   50.5834 H   0  0  0  0  0  0  0  0  0  0  0  0
    6.7618   40.7362   49.3345 H   0  0  0  0  0  0  0  0  0  0  0  0
    7.8600   42.9575   49.0722 H   0  0  0  0  0  0  0  0  0  0  0  0
    7.8800   44.5728   52.0274 H   0  0  0  0  0  0  0  0  0  0  0  0
    9.1575   45.6535   51.3070 H   0  0  0  0  0  0  0  0  0  0  0  0
    8.0697   49.0325   53.9047 H   0  0  0  0  0  0  0  0  0  0  0  0
    7.4523   47.9034   55.1181 H   0  0  0  0  0  0  0  0  0  0  0  0
   10.1364   49.2097   54.9217 H   0  0  0  0  0  0  0  0  0  0  0  0
    9.3739   48.4837   56.3459 H   0  0  0  0  0  0  0  0  0  0  0  0
   11.4946   47.3235   54.9520 H   0  0  0  0  0  0  0  0  0  0  0  0
   10.3559   46.3738   55.9188 H   0  0  0  0  0  0  0  0  0  0  0  0
   10.5742   46.6481   52.9395 H   0  0  0  0  0  0  0  0  0  0  0  0
    9.8446   45.3308   53.8667 H   0  0  0  0  0  0  0  0  0  0  0  0
    3.5766   46.6958   55.6557 H   0  0  0  0  0  0  0  0  0  0  0  0
    2.5661   45.5195   55.9931 H   0  0  0  0  0  0  0  0  0  0  0  0
    0.3416   44.5739   56.5885 H   0  0  0  0  0  0  0  0  0  0  0  0
  1  2  1  0
  2  3  1  0
  3  4  2  0
  4  5  1  0
  5  6  2  0
  6  7  1  0
  7  8  1  0
  8  9  1  0
  9 10  2  0
  9 11  1  0
 11 12  2  0
 12 13  1  0
 13 14  2  0
 14 15  1  0
 15 16  2  0
 16 17  1  0
 17 18  1  0
 18 19  1  0
 19 20  2  0
 19 21  1  0
 21 22  1  0
 22 23  1  0
 23 24  1  0
 24 25  1  0
  7 26  1  0
 26 27  1  0
 26 28  1  0
  6 29  1  0
 29 30  2  0
 30  3  1  0
 16 11  1  0
 25 21  1  0
  1 31  1  0
  1 32  1  0
  1 33  1  0
  4 34  1  0
  5 35  1  0
  7 36  1  6
  8 37  1  0
 12 38  1  0
 13 39  1  0
 14 40  1  0
 15 41  1  0
 18 42  1  0
 18 43  1  0
 22 44  1  0
 22 45  1  0
 23 46  1  0
 23 47  1  0
 24 48  1  0
 24 49  1  0
 25 50  1  0
 25 51  1  0
 26 52  1  0
 29 53  1  0
 30 54  1  0
M  END
>  <meeko>  (3) 
{"is_sidechain": [false], "free_energy": -8.045, "intermolecular_energy": -11.698, "internal_energy": -1.663}

$$$$
ligand_72_conformer_5_docked
     RDKit          3D

 54 56  0  0  0  0  0  0  0  0999 V2000
   -1.1080   43.1620   50.5050 C   0  0  0  0  0  0  0  0  0  0  0  0
    0.3180   43.1530   50.5290 O   0  0  0  0  0  0  0  0  0  0  0  0
    1.1020   43.8680   51.4480 C   0  0  0  0  0  0  0  0  0  0  0  0
    0.8310   45.2250   51.6340 C   0  0  0  0  0  0  0  0  0  0  0  0
    1.6000   45.9950   52.5120 C   0  0  0  0  0  0  0  0  0  0  0  0
    2.6820   45.4160   53.2080 C   0  0  0  0  0  0  0  0  0  0  0  0
    3.5270   46.2010   54.2030 C   0  0  2  0  0  0  0  0  0  0  0  0
    4.9430   46.0610   53.8570 N   0  0  0  0  0  0  0  0  0  0  0  0
    5.7170   47.1480   53.3170 C   0  0  0  0  0  0  0  0  0  0  0  0
    5.2640   48.3280   53.3360 O   0  0  0  0  0  0  0  0  0  0  0  0
    7.0480   46.8890   52.7280 C   0  0  0  0  0  0  0  0  0  0  0  0
    8.1900   47.4010   53.3680 C   0  0  0  0  0  0  0  0  0  0  0  0
    9.4610   47.1630   52.8390 C   0  0  0  0  0  0  0  0  0  0  0  0
    9.6080   46.4050   51.6760 C   0  0  0  0  0  0  0  0  0  0  0  0
    8.4830   45.8820   51.0370 C   0  0  0  0  0  0  0  0  0  0  0  0
    7.2010   46.1150   51.5530 C   0  0  0  0  0  0  0  0  0  0  0  0
    5.7850   45.4090   50.6900 S   0  0  0  0  0  0  0  0  0  0  0  0
    6.3290   43.6670   50.8690 C   0  0  0  0  0  0  0  0  0  0  0  0
    6.3590   42.9250   49.5580 C   0  0  0  0  0  0  0  0  0  0  0  0
    7.2280   43.2070   48.6880 O   0  0  0  0  0  0  0  0  0  0  0  0
    5.3630   41.9240   49.2650 N   0  0  0  0  0  0  0  0  0  0  0  0
    5.3020   41.2190   47.9960 C   0  0  0  0  0  0  0  0  0  0  0  0
    3.9840   40.4470   48.0170 C   0  0  0  0  0  0  0  0  0  0  0  0
    3.5230   40.4400   49.4760 C   0  0  0  0  0  0  0  0  0  0  0  0
    4.2540   41.5970   50.1480 C   0  0  0  0  0  0  0  0  0  0  0  0
    3.2970   45.8180   55.6770 C   0  0  0  0  0  0  0  0  0  0  0  0
    2.0450   45.2650   55.8620 F   0  0  0  0  0  0  0  0  0  0  0  0
    4.2480   44.8870   56.0700 F   0  0  0  0  0  0  0  0  0  0  0  0
    2.9300   44.0440   53.0420 C   0  0  0  0  0  0  0  0  0  0  0  0
    2.1500   43.2740   52.1740 C   0  0  0  0  0  0  0  0  0  0  0  0
   -1.4921   43.1644   51.5358 H   0  0  0  0  0  0  0  0  0  0  0  0
   -1.4602   44.0624   49.9804 H   0  0  0  0  0  0  0  0  0  0  0  0
   -1.4716   42.2661   49.9804 H   0  0  0  0  0  0  0  0  0  0  0  0
    0.0024   45.6940   51.0831 H   0  0  0  0  0  0  0  0  0  0  0  0
    1.3600   47.0581   52.6609 H   0  0  0  0  0  0  0  0  0  0  0  0
    3.2062   47.2499   54.1206 H   0  0  0  0  0  0  0  0  0  0  0  0
    5.3430   45.0970   53.8110 H   0  0  0  0  0  0  0  0  0  0  0  0
    8.0825   47.9918   54.2896 H   0  0  0  0  0  0  0  0  0  0  0  0
   10.3492   47.5744   53.3408 H   0  0  0  0  0  0  0  0  0  0  0  0
   10.6107   46.2199   51.2632 H   0  0  0  0  0  0  0  0  0  0  0  0
    8.6033   45.2829   50.1223 H   0  0  0  0  0  0  0  0  0  0  0  0
    7.3406   43.6577   51.3009 H   0  0  0  0  0  0  0  0  0  0  0  0
    5.6018   43.1590   51.5195 H   0  0  0  0  0  0  0  0  0  0  0  0
    5.3154   41.9329   47.1593 H   0  0  0  0  0  0  0  0  0  0  0  0
    6.1638   40.5488   47.8612 H   0  0  0  0  0  0  0  0  0  0  0  0
    3.2376   40.9475   47.3827 H   0  0  0  0  0  0  0  0  0  0  0  0
    4.1091   39.4254   47.6289 H   0  0  0  0  0  0  0  0  0  0  0  0
    2.4347   40.5888   49.5346 H   0  0  0  0  0  0  0  0  0  0  0  0
    3.7457   39.4809   49.9664 H   0  0  0  0  0  0  0  0  0  0  0  0
    3.5837   42.4620   50.2592 H   0  0  0  0  0  0  0  0  0  0  0  0
    4.6019   41.3282   51.1563 H   0  0  0  0  0  0  0  0  0  0  0  0
    3.3771   46.7352   56.2789 H   0  0  0  0  0  0  0  0  0  0  0  0
    3.7487   43.5687   53.6022 H   0  0  0  0  0  0  0  0  0  0  0  0
    2.3567   42.1998   52.0585 H   0  0  0  0  0  0  0  0  0  0  0  0
  1  2  1  0
  2  3  1  0
  3  4  2  0
  4  5  1  0
  5  6  2  0
  6  7  1  0
  7  8  1  0
  8  9  1  0
  9 10  2  0
  9 11  1  0
 11 12  2  0
 12 13  1  0
 13 14  2  0
 14 15  1  0
 15 16  2  0
 16 17  1  0
 17 18  1  0
 18 19  1  0
 19 20  2  0
 19 21  1  0
 21 22  1  0
 22 23  1  0
 23 24  1  0
 24 25  1  0
  7 26  1  0
 26 27  1  0
 26 28  1  0
  6 29  1  0
 29 30  2  0
 30  3  1  0
 16 11  1  0
 25 21  1  0
  1 31  1  0
  1 32  1  0
  1 33  1  0
  4 34  1  0
  5 35  1  0
  7 36  1  1
  8 37  1  0
 12 38  1  0
 13 39  1  0
 14 40  1  0
 15 41  1  0
 18 42  1  0
 18 43  1  0
 22 44  1  0
 22 45  1  0
 23 46  1  0
 23 47  1  0
 24 48  1  0
 24 49  1  0
 25 50  1  0
 25 51  1  0
 26 52  1  0
 29 53  1  0
 30 54  1  0
M  END
>  <meeko>  (4) 
{"is_sidechain": [false], "free_energy": -7.999, "intermolecular_energy": -11.838, "internal_energy": -1.456}

$$$$
ligand_72_conformer_5_docked
     RDKit          3D

 54 56  0  0  0  0  0  0  0  0999 V2000
    0.8690   46.8160   58.3480 C   0  0  0  0  0  0  0  0  0  0  0  0
   -0.1650   46.1150   57.6600 O   0  0  0  0  0  0  0  0  0  0  0  0
    0.0380   45.3070   56.5310 C   0  0  0  0  0  0  0  0  0  0  0  0
   -1.0330   44.5430   56.0620 C   0  0  0  0  0  0  0  0  0  0  0  0
   -0.8800   43.6940   54.9610 C   0  0  0  0  0  0  0  0  0  0  0  0
    0.3710   43.5750   54.3210 C   0  0  0  0  0  0  0  0  0  0  0  0
    0.5810   42.6940   53.0960 C   0  0  2  0  0  0  0  0  0  0  0  0
    1.9590   42.8370   52.6240 N   0  0  0  0  0  0  0  0  0  0  0  0
    2.3150   42.7240   51.2330 C   0  0  0  0  0  0  0  0  0  0  0  0
    1.4190   42.7270   50.3420 O   0  0  0  0  0  0  0  0  0  0  0  0
    3.7330   42.5980   50.8380 C   0  0  0  0  0  0  0  0  0  0  0  0
    4.2040   41.3610   50.3660 C   0  0  0  0  0  0  0  0  0  0  0  0
    5.5380   41.2160   49.9760 C   0  0  0  0  0  0  0  0  0  0  0  0
    6.4110   42.3030   50.0410 C   0  0  0  0  0  0  0  0  0  0  0  0
    5.9540   43.5390   50.4980 C   0  0  0  0  0  0  0  0  0  0  0  0
    4.6190   43.6990   50.8960 C   0  0  0  0  0  0  0  0  0  0  0  0
    4.0830   45.3210   51.4710 S   0  0  0  0  0  0  0  0  0  0  0  0
    5.7220   46.1200   51.2760 C   0  0  0  0  0  0  0  0  0  0  0  0
    6.3190   46.5580   52.5880 C   0  0  0  0  0  0  0  0  0  0  0  0
    5.5710   46.9270   53.5350 O   0  0  0  0  0  0  0  0  0  0  0  0
    7.7510   46.6100   52.7570 N   0  0  0  0  0  0  0  0  0  0  0  0
    8.3860   47.0820   53.9750 C   0  0  0  0  0  0  0  0  0  0  0  0
    9.8730   47.1980   53.6460 C   0  0  0  0  0  0  0  0  0  0  0  0
   10.0800   46.4110   52.3500 C   0  0  0  0  0  0  0  0  0  0  0  0
    8.7050   46.3120   51.7000 C   0  0  0  0  0  0  0  0  0  0  0  0
   -0.4080   42.9560   51.9440 C   0  0  0  0  0  0  0  0  0  0  0  0
   -1.5700   42.2260   52.1050 F   0  0  0  0  0  0  0  0  0  0  0  0
   -0.7390   44.3030   51.9120 F   0  0  0  0  0  0  0  0  0  0  0  0
    1.4370   44.3690   54.7760 C   0  0  0  0  0  0  0  0  0  0  0  0
    1.2760   45.2270   55.8680 C   0  0  0  0  0  0  0  0  0  0  0  0
    0.7207   46.7155   59.4333 H   0  0  0  0  0  0  0  0  0  0  0  0
    1.8459   46.3932   58.0707 H   0  0  0  0  0  0  0  0  0  0  0  0
    0.8379   47.8800   58.0707 H   0  0  0  0  0  0  0  0  0  0  0  0
   -2.0091   44.6098   56.5648 H   0  0  0  0  0  0  0  0  0  0  0  0
   -1.7402   43.1160   54.5923 H   0  0  0  0  0  0  0  0  0  0  0  0
    0.3836   41.6617   53.4207 H   0  0  0  0  0  0  0  0  0  0  0  0
    2.7250   42.8160   53.3340 H   0  0  0  0  0  0  0  0  0  0  0  0
    3.5191   40.5025   50.3032 H   0  0  0  0  0  0  0  0  0  0  0  0
    5.9013   40.2419   49.6166 H   0  0  0  0  0  0  0  0  0  0  0  0
    7.4600   42.1849   49.7317 H   0  0  0  0  0  0  0  0  0  0  0  0
    6.6450   44.3935   50.5465 H   0  0  0  0  0  0  0  0  0  0  0  0
    6.4076   45.4036   50.7999 H   0  0  0  0  0  0  0  0  0  0  0  0
    5.5798   47.0204   50.6604 H   0  0  0  0  0  0  0  0  0  0  0  0
    7.9795   48.0622   54.2647 H   0  0  0  0  0  0  0  0  0  0  0  0
    8.2082   46.3977   54.8177 H   0  0  0  0  0  0  0  0  0  0  0  0
   10.1516   48.2523   53.5017 H   0  0  0  0  0  0  0  0  0  0  0  0
   10.4982   46.8045   54.4610 H   0  0  0  0  0  0  0  0  0  0  0  0
   10.7796   46.9415   51.6873 H   0  0  0  0  0  0  0  0  0  0  0  0
   10.5085   45.4167   52.5443 H   0  0  0  0  0  0  0  0  0  0  0  0
    8.6131   47.0423   50.8825 H   0  0  0  0  0  0  0  0  0  0  0  0
    8.5316   45.3174   51.2633 H   0  0  0  0  0  0  0  0  0  0  0  0
    0.0800   42.6522   51.0061 H   0  0  0  0  0  0  0  0  0  0  0  0
    2.4105   44.3149   54.2667 H   0  0  0  0  0  0  0  0  0  0  0  0
    2.1212   45.8422   56.2102 H   0  0  0  0  0  0  0  0  0  0  0  0
  1  2  1  0
  2  3  1  0
  3  4  2  0
  4  5  1  0
  5  6  2  0
  6  7  1  0
  7  8  1  0
  8  9  1  0
  9 10  2  0
  9 11  1  0
 11 12  2  0
 12 13  1  0
 13 14  2  0
 14 15  1  0
 15 16  2  0
 16 17  1  0
 17 18  1  0
 18 19  1  0
 19 20  2  0
 19 21  1  0
 21 22  1  0
 22 23  1  0
 23 24  1  0
 24 25  1  0
  7 26  1  0
 26 27  1  0
 26 28  1  0
  6 29  1  0
 29 30  2  0
 30  3  1  0
 16 11  1  0
 25 21  1  0
  1 31  1  0
  1 32  1  0
  1 33  1  0
  4 34  1  0
  5 35  1  0
  7 36  1  1
  8 37  1  0
 12 38  1  0
 13 39  1  0
 14 40  1  0
 15 41  1  0
 18 42  1  0
 18 43  1  0
 22 44  1  0
 22 45  1  0
 23 46  1  0
 23 47  1  0
 24 48  1  0
 24 49  1  0
 25 50  1  0
 25 51  1  0
 26 52  1  0
 29 53  1  0
 30 54  1  0
M  END
>  <meeko>  (5) 
{"is_sidechain": [false], "free_energy": -7.898, "intermolecular_energy": -13.072, "internal_energy": -0.073}

$$$$
