ligand_84_conformer_4_docked
     RDKit          3D

 51 53  0  0  0  0  0  0  0  0999 V2000
    0.7180   42.5970   53.8280 C   0  0  0  0  0  0  0  0  0  0  0  0
    0.3830   42.5670   52.3990 N   0  0  0  0  0  0  0  0  0  0  0  0
   -0.8840   41.9740   51.9580 C   0  0  0  0  0  0  0  0  0  0  0  0
    1.2790   43.1170   51.4060 C   0  0  0  0  0  0  0  0  0  0  0  0
    0.9330   43.1110   50.1920 O   0  0  0  0  0  0  0  0  0  0  0  0
    2.6450   43.6670   51.7790 C   0  0  2  0  0  0  0  0  0  0  0  0
    2.7590   45.0870   51.4380 N   0  0  0  0  0  0  0  0  0  0  0  0
    2.0990   46.0910   52.2210 C   0  0  0  0  0  0  0  0  0  0  0  0
    0.9770   45.8550   52.7450 O   0  0  0  0  0  0  0  0  0  0  0  0
    2.7840   47.3910   52.4950 C   0  0  0  0  0  0  0  0  0  0  0  0
    4.0580   47.1240   53.2340 C   0  0  0  0  0  0  0  0  0  0  0  0
    4.0930   46.6890   54.5570 C   0  0  0  0  0  0  0  0  0  0  0  0
    5.6970   46.3840   54.9530 S   0  0  0  0  0  0  0  0  0  0  0  0
    6.2790   46.8070   53.4270 C   0  0  0  0  0  0  0  0  0  0  0  0
    7.6640   46.7600   53.0190 N   0  0  0  0  0  0  0  0  0  0  0  0
    8.0270   46.0220   51.7960 C   0  0  0  0  0  0  0  0  0  0  0  0
    9.3760   46.4760   51.2290 C   0  0  0  0  0  0  0  0  0  0  0  0
   10.4600   46.3870   52.3000 C   0  0  0  0  0  0  0  0  0  0  0  0
   10.0800   47.1800   53.4620 N   0  0  0  0  0  0  0  0  0  0  0  0
    8.7100   47.2940   53.8620 C   0  0  0  0  0  0  0  0  0  0  0  0
    8.4370   47.8790   54.9440 O   0  0  0  0  0  0  0  0  0  0  0  0
    5.2670   47.1750   52.6100 N   0  0  0  0  0  0  0  0  0  0  0  0
    3.7560   42.9090   51.0830 C   0  0  0  0  0  0  0  0  0  0  0  0
    5.0150   43.5130   50.9110 C   0  0  0  0  0  0  0  0  0  0  0  0
    6.0290   42.8480   50.2190 C   0  0  0  0  0  0  0  0  0  0  0  0
    5.7970   41.5780   49.6840 C   0  0  0  0  0  0  0  0  0  0  0  0
    4.5440   40.9790   49.8280 C   0  0  0  0  0  0  0  0  0  0  0  0
    3.5240   41.6440   50.5120 C   0  0  0  0  0  0  0  0  0  0  0  0
   -0.2038   42.5145   54.4225 H   0  0  0  0  0  0  0  0  0  0  0  0
    1.3845   41.7549   54.0661 H   0  0  0  0  0  0  0  0  0  0  0  0
    1.2243   43.5441   54.0661 H   0  0  0  0  0  0  0  0  0  0  0  0
   -1.4831   41.6936   52.8369 H   0  0  0  0  0  0  0  0  0  0  0  0
   -1.4403   42.7053   51.3532 H   0  0  0  0  0  0  0  0  0  0  0  0
   -0.6788   41.0784   51.3532 H   0  0  0  0  0  0  0  0  0  0  0  0
    2.7468   43.5431   52.8672 H   0  0  0  0  0  0  0  0  0  0  0  0
    3.5810   45.3910   50.8660 H   0  0  0  0  0  0  0  0  0  0  0  0
    3.0081   47.8973   51.5445 H   0  0  0  0  0  0  0  0  0  0  0  0
    2.1303   48.0350   53.1016 H   0  0  0  0  0  0  0  0  0  0  0  0
    3.2260   46.5671   55.2229 H   0  0  0  0  0  0  0  0  0  0  0  0
    8.0845   44.9493   52.0327 H   0  0  0  0  0  0  0  0  0  0  0  0
    7.2557   46.2221   51.0376 H   0  0  0  0  0  0  0  0  0  0  0  0
    9.6493   45.8295   50.3820 H   0  0  0  0  0  0  0  0  0  0  0  0
    9.2894   47.5204   50.8946 H   0  0  0  0  0  0  0  0  0  0  0  0
   10.5883   45.3370   52.6019 H   0  0  0  0  0  0  0  0  0  0  0  0
   11.4041   46.7760   51.8909 H   0  0  0  0  0  0  0  0  0  0  0  0
   10.8290   47.5850   54.0680 H   0  0  0  0  0  0  0  0  0  0  0  0
    5.2016   44.5152   51.3242 H   0  0  0  0  0  0  0  0  0  0  0  0
    7.0125   43.3247   50.0947 H   0  0  0  0  0  0  0  0  0  0  0  0
    6.6010   41.0506   49.1498 H   0  0  0  0  0  0  0  0  0  0  0  0
    4.3599   39.9817   49.4020 H   0  0  0  0  0  0  0  0  0  0  0  0
    2.5329   41.1759   50.6050 H   0  0  0  0  0  0  0  0  0  0  0  0
  1  2  1  0
  2  3  1  0
  2  4  1  0
  4  5  2  0
  4  6  1  0
  6  7  1  0
  7  8  1  0
  8  9  2  0
  8 10  1  0
 10 11  1  0
 11 12  2  0
 12 13  1  0
 13 14  1  0
 14 15  1  0
 15 16  1  0
 16 17  1  0
 17 18  1  0
 18 19  1  0
 19 20  1  0
 20 21  2  0
 14 22  2  0
  6 23  1  0
 23 24  2  0
 24 25  1  0
 25 26  2  0
 26 27  1  0
 27 28  2  0
 22 11  1  0
 28 23  1  0
 20 15  1  0
  1 29  1  0
  1 30  1  0
  1 31  1  0
  3 32  1  0
  3 33  1  0
  3 34  1  0
  6 35  1  1
  7 36  1  0
 10 37  1  0
 10 38  1  0
 12 39  1  0
 16 40  1  0
 16 41  1  0
 17 42  1  0
 17 43  1  0
 18 44  1  0
 18 45  1  0
 19 46  1  0
 24 47  1  0
 25 48  1  0
 26 49  1  0
 27 50  1  0
 28 51  1  0
M  END
>  <meeko>  (1) 
{"is_sidechain": [false], "free_energy": -8.708, "intermolecular_energy": -11.762, "internal_energy": -0.671}

$$$$
ligand_84_conformer_4_docked
     RDKit          3D

 51 53  0  0  0  0  0  0  0  0999 V2000
    7.5960   48.0530   52.2560 C   0  0  0  0  0  0  0  0  0  0  0  0
    7.4120   46.9950   53.2570 N   0  0  0  0  0  0  0  0  0  0  0  0
    8.2050   47.0110   54.4910 C   0  0  0  0  0  0  0  0  0  0  0  0
    6.4570   45.9280   53.0550 C   0  0  0  0  0  0  0  0  0  0  0  0
    6.2970   45.0640   53.9600 O   0  0  0  0  0  0  0  0  0  0  0  0
    5.6660   45.7980   51.7650 C   0  0  2  0  0  0  0  0  0  0  0  0
    4.3050   45.3190   52.0200 N   0  0  0  0  0  0  0  0  0  0  0  0
    3.2190   45.6800   51.1550 C   0  0  0  0  0  0  0  0  0  0  0  0
    3.1890   46.8170   50.6100 O   0  0  0  0  0  0  0  0  0  0  0  0
    2.1660   44.6730   50.8220 C   0  0  0  0  0  0  0  0  0  0  0  0
    1.4180   44.3200   52.0700 C   0  0  0  0  0  0  0  0  0  0  0  0
    0.7510   43.1090   52.2390 C   0  0  0  0  0  0  0  0  0  0  0  0
    0.1660   43.0630   53.8140 S   0  0  0  0  0  0  0  0  0  0  0  0
    0.7920   44.5770   54.2170 C   0  0  0  0  0  0  0  0  0  0  0  0
    0.6790   45.2090   55.5110 N   0  0  0  0  0  0  0  0  0  0  0  0
   -0.6570   45.5720   56.0180 C   0  0  0  0  0  0  0  0  0  0  0  0
   -0.6680   45.7410   57.5410 C   0  0  0  0  0  0  0  0  0  0  0  0
    0.4030   46.7380   57.9730 C   0  0  0  0  0  0  0  0  0  0  0  0
    1.7110   46.3040   57.4970 N   0  0  0  0  0  0  0  0  0  0  0  0
    1.8530   45.6250   56.2450 C   0  0  0  0  0  0  0  0  0  0  0  0
    3.0100   45.3830   55.8100 O   0  0  0  0  0  0  0  0  0  0  0  0
    1.4500   45.1220   53.1700 N   0  0  0  0  0  0  0  0  0  0  0  0
    6.3400   44.8500   50.7950 C   0  0  0  0  0  0  0  0  0  0  0  0
    5.7890   43.5760   50.5630 C   0  0  0  0  0  0  0  0  0  0  0  0
    6.4330   42.6720   49.7160 C   0  0  0  0  0  0  0  0  0  0  0  0
    7.6370   43.0230   49.0990 C   0  0  0  0  0  0  0  0  0  0  0  0
    8.2050   44.2750   49.3410 C   0  0  0  0  0  0  0  0  0  0  0  0
    7.5690   45.1800   50.1940 C   0  0  0  0  0  0  0  0  0  0  0  0
    7.7631   49.0139   52.7646 H   0  0  0  0  0  0  0  0  0  0  0  0
    8.4662   47.8150   51.6267 H   0  0  0  0  0  0  0  0  0  0  0  0
    6.6965   48.1228   51.6267 H   0  0  0  0  0  0  0  0  0  0  0  0
    7.5310   46.9974   55.3602 H   0  0  0  0  0  0  0  0  0  0  0  0
    8.8575   46.1258   54.5191 H   0  0  0  0  0  0  0  0  0  0  0  0
    8.8212   47.9218   54.5191 H   0  0  0  0  0  0  0  0  0  0  0  0
    5.6232   46.8035   51.3210 H   0  0  0  0  0  0  0  0  0  0  0  0
    4.1880   44.4550   52.5980 H   0  0  0  0  0  0  0  0  0  0  0  0
    1.4707   45.0971   50.0826 H   0  0  0  0  0  0  0  0  0  0  0  0
    2.6340   43.7709   50.4011 H   0  0  0  0  0  0  0  0  0  0  0  0
    0.6290   42.3238   51.4784 H   0  0  0  0  0  0  0  0  0  0  0  0
   -0.9675   46.5196   55.5535 H   0  0  0  0  0  0  0  0  0  0  0  0
   -1.3499   44.7569   55.7621 H   0  0  0  0  0  0  0  0  0  0  0  0
   -1.6549   46.1093   57.8577 H   0  0  0  0  0  0  0  0  0  0  0  0
   -0.4596   44.7679   58.0096 H   0  0  0  0  0  0  0  0  0  0  0  0
    0.1715   47.7269   57.5504 H   0  0  0  0  0  0  0  0  0  0  0  0
    0.4199   46.7957   59.0714 H   0  0  0  0  0  0  0  0  0  0  0  0
    2.5650   46.5840   58.0310 H   0  0  0  0  0  0  0  0  0  0  0  0
    4.8457   43.2908   51.0517 H   0  0  0  0  0  0  0  0  0  0  0  0
    5.9917   41.6810   49.5338 H   0  0  0  0  0  0  0  0  0  0  0  0
    8.1366   42.3132   48.4232 H   0  0  0  0  0  0  0  0  0  0  0  0
    9.1550   44.5493   48.8591 H   0  0  0  0  0  0  0  0  0  0  0  0
    8.0318   46.1570   50.3973 H   0  0  0  0  0  0  0  0  0  0  0  0
  1  2  1  0
  2  3  1  0
  2  4  1  0
  4  5  2  0
  4  6  1  0
  6  7  1  0
  7  8  1  0
  8  9  2  0
  8 10  1  0
 10 11  1  0
 11 12  2  0
 12 13  1  0
 13 14  1  0
 14 15  1  0
 15 16  1  0
 16 17  1  0
 17 18  1  0
 18 19  1  0
 19 20  1  0
 20 21  2  0
 14 22  2  0
  6 23  1  0
 23 24  2  0
 24 25  1  0
 25 26  2  0
 26 27  1  0
 27 28  2  0
 22 11  1  0
 28 23  1  0
 20 15  1  0
  1 29  1  0
  1 30  1  0
  1 31  1  0
  3 32  1  0
  3 33  1  0
  3 34  1  0
  6 35  1  6
  7 36  1  0
 10 37  1  0
 10 38  1  0
 12 39  1  0
 16 40  1  0
 16 41  1  0
 17 42  1  0
 17 43  1  0
 18 44  1  0
 18 45  1  0
 19 46  1  0
 24 47  1  0
 25 48  1  0
 26 49  1  0
 27 50  1  0
 28 51  1  0
M  END
>  <meeko>  (2) 
{"is_sidechain": [false], "free_energy": -8.699, "intermolecular_energy": -11.272, "internal_energy": -1.148}

$$$$
ligand_84_conformer_4_docked
     RDKit          3D

 51 53  0  0  0  0  0  0  0  0999 V2000
    8.3580   48.4540   51.9130 C   0  0  0  0  0  0  0  0  0  0  0  0
    8.2770   47.4170   52.9490 N   0  0  0  0  0  0  0  0  0  0  0  0
    9.2270   47.4240   54.0660 C   0  0  0  0  0  0  0  0  0  0  0  0
    7.2710   46.3790   52.8950 C   0  0  0  0  0  0  0  0  0  0  0  0
    7.2070   45.5320   53.8290 O   0  0  0  0  0  0  0  0  0  0  0  0
    6.3120   46.2560   51.7230 C   0  0  2  0  0  0  0  0  0  0  0  0
    4.9320   46.0770   52.1810 N   0  0  0  0  0  0  0  0  0  0  0  0
    4.2160   47.1480   52.8110 C   0  0  0  0  0  0  0  0  0  0  0  0
    4.8200   47.9690   53.5520 O   0  0  0  0  0  0  0  0  0  0  0  0
    2.7650   47.3500   52.5140 C   0  0  0  0  0  0  0  0  0  0  0  0
    2.0050   46.1370   52.9530 C   0  0  0  0  0  0  0  0  0  0  0  0
    2.3150   45.4230   54.1070 C   0  0  0  0  0  0  0  0  0  0  0  0
    1.1460   44.2310   54.3010 S   0  0  0  0  0  0  0  0  0  0  0  0
    0.2920   44.6760   52.9160 C   0  0  0  0  0  0  0  0  0  0  0  0
   -0.9230   44.0510   52.4460 N   0  0  0  0  0  0  0  0  0  0  0  0
   -2.1430   44.1460   53.2670 C   0  0  0  0  0  0  0  0  0  0  0  0
   -3.4110   43.9060   52.4420 C   0  0  0  0  0  0  0  0  0  0  0  0
   -3.3190   42.5770   51.6990 C   0  0  0  0  0  0  0  0  0  0  0  0
   -2.1290   42.5550   50.8590 N   0  0  0  0  0  0  0  0  0  0  0  0
   -0.9250   43.2120   51.2680 C   0  0  0  0  0  0  0  0  0  0  0  0
    0.1180   43.0610   50.5770 O   0  0  0  0  0  0  0  0  0  0  0  0
    0.8800   45.7290   52.3050 N   0  0  0  0  0  0  0  0  0  0  0  0
    6.6800   45.0940   50.8250 C   0  0  0  0  0  0  0  0  0  0  0  0
    7.8970   45.1120   50.1200 C   0  0  0  0  0  0  0  0  0  0  0  0
    8.2210   44.0730   49.2440 C   0  0  0  0  0  0  0  0  0  0  0  0
    7.3330   43.0110   49.0550 C   0  0  0  0  0  0  0  0  0  0  0  0
    6.1120   42.9950   49.7320 C   0  0  0  0  0  0  0  0  0  0  0  0
    5.7790   44.0350   50.6030 C   0  0  0  0  0  0  0  0  0  0  0  0
    8.4352   49.4426   52.3890 H   0  0  0  0  0  0  0  0  0  0  0  0
    9.2452   48.2782   51.2868 H   0  0  0  0  0  0  0  0  0  0  0  0
    7.4543   48.4181   51.2868 H   0  0  0  0  0  0  0  0  0  0  0  0
    8.6746   47.4199   55.0172 H   0  0  0  0  0  0  0  0  0  0  0  0
    9.8662   46.5305   54.0094 H   0  0  0  0  0  0  0  0  0  0  0  0
    9.8529   48.3268   54.0094 H   0  0  0  0  0  0  0  0  0  0  0  0
    6.3905   47.1939   51.1537 H   0  0  0  0  0  0  0  0  0  0  0  0
    4.3640   45.3150   51.7440 H   0  0  0  0  0  0  0  0  0  0  0  0
    2.3966   48.2328   53.0571 H   0  0  0  0  0  0  0  0  0  0  0  0
    2.6246   47.5064   51.4343 H   0  0  0  0  0  0  0  0  0  0  0  0
    3.1714   45.6060   54.7726 H   0  0  0  0  0  0  0  0  0  0  0  0
   -2.0921   43.3927   54.0669 H   0  0  0  0  0  0  0  0  0  0  0  0
   -2.1951   45.1638   53.6810 H   0  0  0  0  0  0  0  0  0  0  0  0
   -4.2819   43.8861   53.1136 H   0  0  0  0  0  0  0  0  0  0  0  0
   -3.5179   44.7183   51.7080 H   0  0  0  0  0  0  0  0  0  0  0  0
   -3.2649   41.7553   52.4283 H   0  0  0  0  0  0  0  0  0  0  0  0
   -4.2098   42.4563   51.0650 H   0  0  0  0  0  0  0  0  0  0  0  0
   -2.1260   41.9670   49.9950 H   0  0  0  0  0  0  0  0  0  0  0  0
    8.5974   45.9487   50.2591 H   0  0  0  0  0  0  0  0  0  0  0  0
    9.1778   44.0911   48.7016 H   0  0  0  0  0  0  0  0  0  0  0  0
    7.5956   42.1884   48.3736 H   0  0  0  0  0  0  0  0  0  0  0  0
    5.4107   42.1615   49.5791 H   0  0  0  0  0  0  0  0  0  0  0  0
    4.8073   44.0266   51.1184 H   0  0  0  0  0  0  0  0  0  0  0  0
  1  2  1  0
  2  3  1  0
  2  4  1  0
  4  5  2  0
  4  6  1  0
  6  7  1  0
  7  8  1  0
  8  9  2  0
  8 10  1  0
 10 11  1  0
 11 12  2  0
 12 13  1  0
 13 14  1  0
 14 15  1  0
 15 16  1  0
 16 17  1  0
 17 18  1  0
 18 19  1  0
 19 20  1  0
 20 21  2  0
 14 22  2  0
  6 23  1  0
 23 24  2  0
 24 25  1  0
 25 26  2  0
 26 27  1  0
 27 28  2  0
 22 11  1  0
 28 23  1  0
 20 15  1  0
  1 29  1  0
  1 30  1  0
  1 31  1  0
  3 32  1  0
  3 33  1  0
  3 34  1  0
  6 35  1  6
  7 36  1  0
 10 37  1  0
 10 38  1  0
 12 39  1  0
 16 40  1  0
 16 41  1  0
 17 42  1  0
 17 43  1  0
 18 44  1  0
 18 45  1  0
 19 46  1  0
 24 47  1  0
 25 48  1  0
 26 49  1  0
 27 50  1  0
 28 51  1  0
M  END
>  <meeko>  (3) 
{"is_sidechain": [false], "free_energy": -8.582, "intermolecular_energy": -11.575, "internal_energy": -0.688}

$$$$
ligand_84_conformer_4_docked
     RDKit          3D

 51 53  0  0  0  0  0  0  0  0999 V2000
   -1.5090   44.1970   50.9770 C   0  0  0  0  0  0  0  0  0  0  0  0
   -1.5950   42.9280   51.7100 N   0  0  0  0  0  0  0  0  0  0  0  0
   -2.7710   42.0670   51.5450 C   0  0  0  0  0  0  0  0  0  0  0  0
   -0.5360   42.5000   52.5980 C   0  0  0  0  0  0  0  0  0  0  0  0
   -0.6290   41.3810   53.1750 O   0  0  0  0  0  0  0  0  0  0  0  0
    0.6690   43.3790   52.8860 C   0  0  2  0  0  0  0  0  0  0  0  0
    1.9170   42.6170   52.8010 N   0  0  0  0  0  0  0  0  0  0  0  0
    2.6120   42.4720   51.5550 C   0  0  0  0  0  0  0  0  0  0  0  0
    1.9710   42.3830   50.4740 O   0  0  0  0  0  0  0  0  0  0  0  0
    4.1060   42.5190   51.5270 C   0  0  0  0  0  0  0  0  0  0  0  0
    4.5510   43.9430   51.6510 C   0  0  0  0  0  0  0  0  0  0  0  0
    3.6830   45.0240   51.5230 C   0  0  0  0  0  0  0  0  0  0  0  0
    4.5520   46.4220   51.8640 S   0  0  0  0  0  0  0  0  0  0  0  0
    5.9910   45.5950   52.1690 C   0  0  0  0  0  0  0  0  0  0  0  0
    7.2380   46.2070   52.5660 N   0  0  0  0  0  0  0  0  0  0  0  0
    8.3840   46.1670   51.6400 C   0  0  0  0  0  0  0  0  0  0  0  0
    9.4160   47.2540   51.9560 C   0  0  0  0  0  0  0  0  0  0  0  0
    9.8510   47.1650   53.4160 C   0  0  0  0  0  0  0  0  0  0  0  0
    8.6900   47.2680   54.2900 N   0  0  0  0  0  0  0  0  0  0  0  0
    7.4250   46.7210   53.9040 C   0  0  0  0  0  0  0  0  0  0  0  0
    6.4820   46.7150   54.7400 O   0  0  0  0  0  0  0  0  0  0  0  0
    5.8220   44.2620   52.0210 N   0  0  0  0  0  0  0  0  0  0  0  0
    0.5780   44.0100   54.2590 C   0  0  0  0  0  0  0  0  0  0  0  0
   -0.6760   44.1630   54.8790 C   0  0  0  0  0  0  0  0  0  0  0  0
   -0.7780   44.7970   56.1190 C   0  0  0  0  0  0  0  0  0  0  0  0
    0.3660   45.2920   56.7510 C   0  0  0  0  0  0  0  0  0  0  0  0
    1.6130   45.1670   56.1340 C   0  0  0  0  0  0  0  0  0  0  0  0
    1.7190   44.5420   54.8890 C   0  0  0  0  0  0  0  0  0  0  0  0
   -1.4525   45.0306   51.6925 H   0  0  0  0  0  0  0  0  0  0  0  0
   -0.6089   44.1949   50.3446 H   0  0  0  0  0  0  0  0  0  0  0  0
   -2.4011   44.3164   50.3446 H   0  0  0  0  0  0  0  0  0  0  0  0
   -3.1591   41.7829   52.5343 H   0  0  0  0  0  0  0  0  0  0  0  0
   -3.5485   42.6109   50.9885 H   0  0  0  0  0  0  0  0  0  0  0  0
   -2.4873   41.1615   50.9885 H   0  0  0  0  0  0  0  0  0  0  0  0
    0.6705   44.1699   52.1214 H   0  0  0  0  0  0  0  0  0  0  0  0
    2.4740   42.4860   53.6770 H   0  0  0  0  0  0  0  0  0  0  0  0
    4.5093   41.9322   52.3655 H   0  0  0  0  0  0  0  0  0  0  0  0
    4.4736   42.0957   50.5806 H   0  0  0  0  0  0  0  0  0  0  0  0
    2.6192   44.9725   51.2480 H   0  0  0  0  0  0  0  0  0  0  0  0
    8.8695   45.1830   51.7182 H   0  0  0  0  0  0  0  0  0  0  0  0
    8.0049   46.3442   50.6227 H   0  0  0  0  0  0  0  0  0  0  0  0
   10.2941   47.1199   51.3072 H   0  0  0  0  0  0  0  0  0  0  0  0
    8.9621   48.2400   51.7780 H   0  0  0  0  0  0  0  0  0  0  0  0
   10.3522   46.2011   53.5885 H   0  0  0  0  0  0  0  0  0  0  0  0
   10.5432   47.9908   53.6371 H   0  0  0  0  0  0  0  0  0  0  0  0
    8.8120   47.6550   55.2540 H   0  0  0  0  0  0  0  0  0  0  0  0
   -1.5810   43.7810   54.3840 H   0  0  0  0  0  0  0  0  0  0  0  0
   -1.7613   44.9071   56.5996 H   0  0  0  0  0  0  0  0  0  0  0  0
    0.2845   45.7797   57.7336 H   0  0  0  0  0  0  0  0  0  0  0  0
    2.5127   45.5612   56.6291 H   0  0  0  0  0  0  0  0  0  0  0  0
    2.7003   44.4651   54.3979 H   0  0  0  0  0  0  0  0  0  0  0  0
  1  2  1  0
  2  3  1  0
  2  4  1  0
  4  5  2  0
  4  6  1  0
  6  7  1  0
  7  8  1  0
  8  9  2  0
  8 10  1  0
 10 11  1  0
 11 12  2  0
 12 13  1  0
 13 14  1  0
 14 15  1  0
 15 16  1  0
 16 17  1  0
 17 18  1  0
 18 19  1  0
 19 20  1  0
 20 21  2  0
 14 22  2  0
  6 23  1  0
 23 24  2  0
 24 25  1  0
 25 26  2  0
 26 27  1  0
 27 28  2  0
 22 11  1  0
 28 23  1  0
 20 15  1  0
  1 29  1  0
  1 30  1  0
  1 31  1  0
  3 32  1  0
  3 33  1  0
  3 34  1  0
  6 35  1  6
  7 36  1  0
 10 37  1  0
 10 38  1  0
 12 39  1  0
 16 40  1  0
 16 41  1  0
 17 42  1  0
 17 43  1  0
 18 44  1  0
 18 45  1  0
 19 46  1  0
 24 47  1  0
 25 48  1  0
 26 49  1  0
 27 50  1  0
 28 51  1  0
M  END
>  <meeko>  (4) 
{"is_sidechain": [false], "free_energy": -8.459, "intermolecular_energy": -11.319, "internal_energy": -0.777}

$$$$
ligand_84_conformer_4_docked
     RDKit          3D

 51 53  0  0  0  0  0  0  0  0999 V2000
   -0.0560   44.8770   51.5360 C   0  0  0  0  0  0  0  0  0  0  0  0
   -0.0340   44.5910   52.9750 N   0  0  0  0  0  0  0  0  0  0  0  0
   -1.2770   44.6520   53.7520 C   0  0  0  0  0  0  0  0  0  0  0  0
    1.1960   44.2440   53.6530 C   0  0  0  0  0  0  0  0  0  0  0  0
    1.1640   43.9620   54.8830 O   0  0  0  0  0  0  0  0  0  0  0  0
    2.5330   44.2480   52.9330 C   0  0  2  0  0  0  0  0  0  0  0  0
    3.0110   42.8850   52.6890 N   0  0  0  0  0  0  0  0  0  0  0  0
    3.0880   42.3550   51.3580 C   0  0  0  0  0  0  0  0  0  0  0  0
    2.2320   42.6810   50.4920 O   0  0  0  0  0  0  0  0  0  0  0  0
    4.2390   41.4850   50.9680 C   0  0  0  0  0  0  0  0  0  0  0  0
    5.3530   42.3480   50.4650 C   0  0  0  0  0  0  0  0  0  0  0  0
    5.9670   42.1540   49.2300 C   0  0  0  0  0  0  0  0  0  0  0  0
    7.0610   43.4090   48.9990 S   0  0  0  0  0  0  0  0  0  0  0  0
    6.7030   44.1500   50.4720 C   0  0  0  0  0  0  0  0  0  0  0  0
    7.2970   45.3750   50.9560 N   0  0  0  0  0  0  0  0  0  0  0  0
    6.4190   46.4640   51.4210 C   0  0  0  0  0  0  0  0  0  0  0  0
    7.1530   47.4390   52.3480 C   0  0  0  0  0  0  0  0  0  0  0  0
    8.4160   47.9650   51.6730 C   0  0  0  0  0  0  0  0  0  0  0  0
    9.2760   46.8530   51.2870 N   0  0  0  0  0  0  0  0  0  0  0  0
    8.7210   45.6070   50.8550 C   0  0  0  0  0  0  0  0  0  0  0  0
    9.4930   44.7180   50.4060 O   0  0  0  0  0  0  0  0  0  0  0  0
    5.7540   43.4600   51.1420 N   0  0  0  0  0  0  0  0  0  0  0  0
    3.5860   44.9960   53.7230 C   0  0  0  0  0  0  0  0  0  0  0  0
    3.4370   46.3750   53.9580 C   0  0  0  0  0  0  0  0  0  0  0  0
    4.4290   47.0880   54.6350 C   0  0  0  0  0  0  0  0  0  0  0  0
    5.5840   46.4360   55.0770 C   0  0  0  0  0  0  0  0  0  0  0  0
    5.7530   45.0730   54.8280 C   0  0  0  0  0  0  0  0  0  0  0  0
    4.7670   44.3570   54.1440 C   0  0  0  0  0  0  0  0  0  0  0  0
   -0.1395   45.9626   51.3792 H   0  0  0  0  0  0  0  0  0  0  0  0
    0.8730   44.5103   51.0750 H   0  0  0  0  0  0  0  0  0  0  0  0
   -0.9180   44.3725   51.0750 H   0  0  0  0  0  0  0  0  0  0  0  0
   -1.0391   44.6403   54.8259 H   0  0  0  0  0  0  0  0  0  0  0  0
   -1.8179   45.5778   53.5063 H   0  0  0  0  0  0  0  0  0  0  0  0
   -1.9060   43.7836   53.5063 H   0  0  0  0  0  0  0  0  0  0  0  0
    2.3692   44.7569   51.9717 H   0  0  0  0  0  0  0  0  0  0  0  0
    3.6150   42.4370   53.4160 H   0  0  0  0  0  0  0  0  0  0  0  0
    4.5818   40.9128   51.8427 H   0  0  0  0  0  0  0  0  0  0  0  0
    3.9256   40.7853   50.1792 H   0  0  0  0  0  0  0  0  0  0  0  0
    5.7711   41.3275   48.5310 H   0  0  0  0  0  0  0  0  0  0  0  0
    6.0469   47.0178   50.5464 H   0  0  0  0  0  0  0  0  0  0  0  0
    5.5917   46.0136   51.9891 H   0  0  0  0  0  0  0  0  0  0  0  0
    6.4894   48.2839   52.5842 H   0  0  0  0  0  0  0  0  0  0  0  0
    7.4349   46.9107   53.2708 H   0  0  0  0  0  0  0  0  0  0  0  0
    8.1379   48.5385   50.7765 H   0  0  0  0  0  0  0  0  0  0  0  0
    8.9584   48.6129   52.3774 H   0  0  0  0  0  0  0  0  0  0  0  0
   10.3080   47.0060   51.2280 H   0  0  0  0  0  0  0  0  0  0  0  0
    2.5336   46.8949   53.6064 H   0  0  0  0  0  0  0  0  0  0  0  0
    4.3012   48.1646   54.8208 H   0  0  0  0  0  0  0  0  0  0  0  0
    6.3588   46.9966   55.6205 H   0  0  0  0  0  0  0  0  0  0  0  0
    6.6644   44.5614   55.1710 H   0  0  0  0  0  0  0  0  0  0  0  0
    4.9149   43.2875   53.9334 H   0  0  0  0  0  0  0  0  0  0  0  0
  1  2  1  0
  2  3  1  0
  2  4  1  0
  4  5  2  0
  4  6  1  0
  6  7  1  0
  7  8  1  0
  8  9  2  0
  8 10  1  0
 10 11  1  0
 11 12  2  0
 12 13  1  0
 13 14  1  0
 14 15  1  0
 15 16  1  0
 16 17  1  0
 17 18  1  0
 18 19  1  0
 19 20  1  0
 20 21  2  0
 14 22  2  0
  6 23  1  0
 23 24  2  0
 24 25  1  0
 25 26  2  0
 26 27  1  0
 27 28  2  0
 22 11  1  0
 28 23  1  0
 20 15  1  0
  1 29  1  0
  1 30  1  0
  1 31  1  0
  3 32  1  0
  3 33  1  0
  3 34  1  0
  6 35  1  6
  7 36  1  0
 10 37  1  0
 10 38  1  0
 12 39  1  0
 16 40  1  0
 16 41  1  0
 17 42  1  0
 17 43  1  0
 18 44  1  0
 18 45  1  0
 19 46  1  0
 24 47  1  0
 25 48  1  0
 26 49  1  0
 27 50  1  0
 28 51  1  0
M  END
>  <meeko>  (5) 
{"is_sidechain": [false], "free_energy": -8.198, "intermolecular_energy": -10.282, "internal_energy": -1.463}

$$$$
