MODEL 1
REMARK VINA RESULT:    -8.028      0.000      0.000
REMARK INTER + INTRA:         -10.134
REMARK INTER:                  -9.436
REMARK INTRA:                  -0.699
REMARK UNBOUND:                -0.699
REMARK SMILES CC1(C)NC(=O)C[C@H]1C(=O)N1CCC[C@@]1(C)c1ccccc1
REMARK SMILES IDX 9 1 10 2 8 3 2 4 4 5 5 6 7 7 6 8 1 9 3 10 11 12 12 13 15 14
REMARK SMILES IDX 13 15 14 16 16 17 17 18 18 19 22 20 19 21 21 22 20 23
REMARK H PARENT 4 11
ROOT
ATOM      1  C   UNL     1       6.179  46.482  52.750  1.00  0.00     0.229 C 
ATOM      2  O   UNL     1       5.364  47.040  51.965  1.00  0.00    -0.274 OA
ENDROOT
BRANCH   1   3
ATOM      3  C   UNL     1       5.772  45.122  53.319  1.00  0.00     0.113 C 
ATOM      4  C   UNL     1       4.790  45.076  54.557  1.00  0.00     0.046 C 
ATOM      5  N   UNL     1       3.631  44.334  54.085  1.00  0.00    -0.350 N 
ATOM      6  C   UNL     1       3.891  43.773  52.816  1.00  0.00     0.221 C 
ATOM      7  C   UNL     1       5.195  44.171  52.250  1.00  0.00     0.116 C 
ATOM      8  O   UNL     1       3.080  43.007  52.234  1.00  0.00    -0.275 OA
ATOM      9  C   UNL     1       4.337  46.443  55.095  1.00  0.00     0.035 C 
ATOM     10  C   UNL     1       5.431  44.282  55.714  1.00  0.00     0.035 C 
ATOM     11  H   UNL     1       2.785  44.119  54.658  1.00  0.00     0.164 HD
ENDBRANCH   1   3
BRANCH   1  12
ATOM     12  N   UNL     1       7.436  47.152  53.020  1.00  0.00    -0.333 N 
ATOM     13  C   UNL     1       7.919  47.187  54.400  1.00  0.00     0.120 C 
ATOM     14  C   UNL     1       8.547  47.298  52.057  1.00  0.00     0.065 C 
ATOM     15  C   UNL     1       9.427  47.031  54.340  1.00  0.00     0.024 C 
ATOM     16  C   UNL     1       9.825  47.422  52.926  1.00  0.00     0.035 C 
ATOM     17  C   UNL     1       8.380  48.620  51.274  1.00  0.00     0.040 C 
BRANCH  14  18
ATOM     18  C   UNL     1       8.674  46.055  51.154  1.00  0.00    -0.023 A 
ATOM     19  C   UNL     1       9.874  45.312  51.160  1.00  0.00     0.006 A 
ATOM     20  C   UNL     1       7.658  45.663  50.249  1.00  0.00     0.006 A 
ATOM     21  C   UNL     1      10.035  44.196  50.334  1.00  0.00     0.000 A 
ATOM     22  C   UNL     1       7.825  44.545  49.426  1.00  0.00     0.000 A 
ATOM     23  C   UNL     1       9.010  43.811  49.471  1.00  0.00     0.000 A 
ENDBRANCH  14  18
ENDBRANCH   1  12
TORSDOF 3
ENDMDL
MODEL 2
REMARK VINA RESULT:    -7.890      2.059      6.007
REMARK INTER + INTRA:          -9.972
REMARK INTER:                  -9.392
REMARK INTRA:                  -0.580
REMARK UNBOUND:                -0.699
REMARK SMILES CC1(C)NC(=O)C[C@H]1C(=O)N1CCC[C@@]1(C)c1ccccc1
REMARK SMILES IDX 9 1 10 2 8 3 2 4 4 5 5 6 7 7 6 8 1 9 3 10 11 12 12 13 15 14
REMARK SMILES IDX 13 15 14 16 16 17 17 18 18 19 22 20 19 21 21 22 20 23
REMARK H PARENT 4 11
ROOT
ATOM      1  C   UNL     1       6.376  46.692  52.422  1.00  0.00     0.229 C 
ATOM      2  O   UNL     1       5.807  47.763  52.772  1.00  0.00    -0.274 OA
ENDROOT
BRANCH   1   3
ATOM      3  C   UNL     1       7.748  46.406  53.033  1.00  0.00     0.113 C 
ATOM      4  C   UNL     1       9.032  47.018  52.346  1.00  0.00     0.046 C 
ATOM      5  N   UNL     1       9.636  47.859  53.368  1.00  0.00    -0.350 N 
ATOM      6  C   UNL     1       8.995  47.660  54.609  1.00  0.00     0.221 C 
ATOM      7  C   UNL     1       7.825  46.762  54.532  1.00  0.00     0.116 C 
ATOM      8  O   UNL     1       9.392  48.201  55.673  1.00  0.00    -0.275 OA
ATOM      9  C   UNL     1       8.772  47.856  51.083  1.00  0.00     0.035 C 
ATOM     10  C   UNL     1      10.032  45.898  51.992  1.00  0.00     0.035 C 
ATOM     11  H   UNL     1      10.510  48.417  53.243  1.00  0.00     0.164 HD
ENDBRANCH   1   3
BRANCH   1  12
ATOM     12  N   UNL     1       5.675  45.814  51.505  1.00  0.00    -0.333 N 
ATOM     13  C   UNL     1       6.441  44.770  50.827  1.00  0.00     0.120 C 
ATOM     14  C   UNL     1       4.242  45.462  51.591  1.00  0.00     0.065 C 
ATOM     15  C   UNL     1       5.542  43.551  50.745  1.00  0.00     0.024 C 
ATOM     16  C   UNL     1       4.124  44.072  50.913  1.00  0.00     0.035 C 
ATOM     17  C   UNL     1       3.415  46.465  50.756  1.00  0.00     0.040 C 
BRANCH  14  18
ATOM     18  C   UNL     1       3.779  45.345  53.057  1.00  0.00    -0.023 A 
ATOM     19  C   UNL     1       2.475  45.756  53.408  1.00  0.00     0.006 A 
ATOM     20  C   UNL     1       4.638  44.912  54.096  1.00  0.00     0.006 A 
ATOM     21  C   UNL     1       2.031  45.691  54.731  1.00  0.00     0.000 A 
ATOM     22  C   UNL     1       4.187  44.848  55.417  1.00  0.00     0.000 A 
ATOM     23  C   UNL     1       2.885  45.233  55.734  1.00  0.00     0.000 A 
ENDBRANCH  14  18
ENDBRANCH   1  12
TORSDOF 3
ENDMDL
MODEL 3
REMARK VINA RESULT:    -7.846      2.337      5.141
REMARK INTER + INTRA:          -9.920
REMARK INTER:                  -9.583
REMARK INTRA:                  -0.338
REMARK UNBOUND:                -0.699
REMARK SMILES CC1(C)NC(=O)C[C@H]1C(=O)N1CCC[C@@]1(C)c1ccccc1
REMARK SMILES IDX 9 1 10 2 8 3 2 4 4 5 5 6 7 7 6 8 1 9 3 10 11 12 12 13 15 14
REMARK SMILES IDX 13 15 14 16 16 17 17 18 18 19 22 20 19 21 21 22 20 23
REMARK H PARENT 4 11
ROOT
ATOM      1  C   UNL     1       6.228  45.569  52.707  1.00  0.00     0.229 C 
ATOM      2  O   UNL     1       6.621  44.700  53.534  1.00  0.00    -0.274 OA
ENDROOT
BRANCH   1   3
ATOM      3  C   UNL     1       7.303  46.443  52.058  1.00  0.00     0.113 C 
ATOM      4  C   UNL     1       8.089  47.478  52.955  1.00  0.00     0.046 C 
ATOM      5  N   UNL     1       9.484  47.075  52.852  1.00  0.00    -0.350 N 
ATOM      6  C   UNL     1       9.635  46.080  51.864  1.00  0.00     0.221 C 
ATOM      7  C   UNL     1       8.355  45.624  51.283  1.00  0.00     0.116 C 
ATOM      8  O   UNL     1      10.759  45.632  51.518  1.00  0.00    -0.275 OA
ATOM      9  C   UNL     1       7.678  47.520  54.436  1.00  0.00     0.035 C 
ATOM     10  C   UNL     1       7.955  48.899  52.371  1.00  0.00     0.035 C 
ATOM     11  H   UNL     1      10.280  47.553  53.330  1.00  0.00     0.164 HD
ENDBRANCH   1   3
BRANCH   1  12
ATOM     12  N   UNL     1       4.810  45.646  52.420  1.00  0.00    -0.333 N 
ATOM     13  C   UNL     1       4.266  46.921  51.953  1.00  0.00     0.120 C 
ATOM     14  C   UNL     1       3.965  44.511  51.990  1.00  0.00     0.065 C 
ATOM     15  C   UNL     1       3.208  46.592  50.917  1.00  0.00     0.024 C 
ATOM     16  C   UNL     1       2.808  45.150  51.178  1.00  0.00     0.035 C 
ATOM     17  C   UNL     1       3.349  43.829  53.231  1.00  0.00     0.040 C 
BRANCH  14  18
ATOM     18  C   UNL     1       4.746  43.546  51.075  1.00  0.00    -0.023 A 
ATOM     19  C   UNL     1       4.530  42.156  51.188  1.00  0.00     0.006 A 
ATOM     20  C   UNL     1       5.738  43.990  50.168  1.00  0.00     0.006 A 
ATOM     21  C   UNL     1       5.240  41.250  50.395  1.00  0.00     0.000 A 
ATOM     22  C   UNL     1       6.443  43.078  49.376  1.00  0.00     0.000 A 
ATOM     23  C   UNL     1       6.192  41.711  49.487  1.00  0.00     0.000 A 
ENDBRANCH  14  18
ENDBRANCH   1  12
TORSDOF 3
ENDMDL
MODEL 4
REMARK VINA RESULT:    -7.771      1.509      2.211
REMARK INTER + INTRA:          -9.832
REMARK INTER:                  -9.462
REMARK INTRA:                  -0.370
REMARK UNBOUND:                -0.699
REMARK SMILES CC1(C)NC(=O)C[C@H]1C(=O)N1CCC[C@@]1(C)c1ccccc1
REMARK SMILES IDX 9 1 10 2 8 3 2 4 4 5 5 6 7 7 6 8 1 9 3 10 11 12 12 13 15 14
REMARK SMILES IDX 13 15 14 16 16 17 17 18 18 19 22 20 19 21 21 22 20 23
REMARK H PARENT 4 11
ROOT
ATOM      1  C   UNL     1       6.457  45.976  53.534  1.00  0.00     0.229 C 
ATOM      2  O   UNL     1       6.585  44.776  53.903  1.00  0.00    -0.274 OA
ENDROOT
BRANCH   1   3
ATOM      3  C   UNL     1       5.067  46.414  53.070  1.00  0.00     0.113 C 
ATOM      4  C   UNL     1       4.232  45.443  52.145  1.00  0.00     0.046 C 
ATOM      5  N   UNL     1       3.019  45.163  52.898  1.00  0.00    -0.350 N 
ATOM      6  C   UNL     1       2.946  45.993  54.037  1.00  0.00     0.221 C 
ATOM      7  C   UNL     1       4.147  46.830  54.236  1.00  0.00     0.116 C 
ATOM      8  O   UNL     1       1.947  46.009  54.802  1.00  0.00    -0.275 OA
ATOM      9  C   UNL     1       4.922  44.119  51.777  1.00  0.00     0.035 C 
ATOM     10  C   UNL     1       3.832  46.164  50.841  1.00  0.00     0.035 C 
ATOM     11  H   UNL     1       2.242  44.546  52.572  1.00  0.00     0.164 HD
ENDBRANCH   1   3
BRANCH   1  12
ATOM     12  N   UNL     1       7.617  46.842  53.612  1.00  0.00    -0.333 N 
ATOM     13  C   UNL     1       8.373  46.875  54.863  1.00  0.00     0.120 C 
ATOM     14  C   UNL     1       8.458  47.245  52.465  1.00  0.00     0.065 C 
ATOM     15  C   UNL     1       9.838  46.995  54.487  1.00  0.00     0.024 C 
ATOM     16  C   UNL     1       9.855  47.540  53.068  1.00  0.00     0.035 C 
ATOM     17  C   UNL     1       7.915  48.563  51.867  1.00  0.00     0.040 C 
BRANCH  14  18
ATOM     18  C   UNL     1       8.587  46.105  51.435  1.00  0.00    -0.023 A 
ATOM     19  C   UNL     1       9.806  45.402  51.327  1.00  0.00     0.006 A 
ATOM     20  C   UNL     1       7.550  45.775  50.528  1.00  0.00     0.006 A 
ATOM     21  C   UNL     1       9.968  44.381  50.386  1.00  0.00     0.000 A 
ATOM     22  C   UNL     1       7.719  44.752  49.590  1.00  0.00     0.000 A 
ATOM     23  C   UNL     1       8.924  44.054  49.522  1.00  0.00     0.000 A 
ENDBRANCH  14  18
ENDBRANCH   1  12
TORSDOF 3
ENDMDL
MODEL 5
REMARK VINA RESULT:    -7.685      2.240      4.249
REMARK INTER + INTRA:          -9.732
REMARK INTER:                  -8.325
REMARK INTRA:                  -1.406
REMARK UNBOUND:                -0.699
REMARK SMILES CC1(C)NC(=O)C[C@H]1C(=O)N1CCC[C@@]1(C)c1ccccc1
REMARK SMILES IDX 9 1 10 2 8 3 2 4 4 5 5 6 7 7 6 8 1 9 3 10 11 12 12 13 15 14
REMARK SMILES IDX 13 15 14 16 16 17 17 18 18 19 22 20 19 21 21 22 20 23
REMARK H PARENT 4 11
ROOT
ATOM      1  C   UNL     1       4.732  45.277  51.620  1.00  0.00     0.229 C 
ATOM      2  O   UNL     1       4.468  46.001  50.621  1.00  0.00    -0.274 OA
ENDROOT
BRANCH   1   3
ATOM      3  C   UNL     1       5.423  43.941  51.344  1.00  0.00     0.113 C 
ATOM      4  C   UNL     1       4.543  42.703  50.908  1.00  0.00     0.046 C 
ATOM      5  N   UNL     1       5.051  42.329  49.597  1.00  0.00    -0.350 N 
ATOM      6  C   UNL     1       6.229  43.047  49.304  1.00  0.00     0.221 C 
ATOM      7  C   UNL     1       6.574  44.059  50.323  1.00  0.00     0.116 C 
ATOM      8  O   UNL     1       6.914  42.836  48.269  1.00  0.00    -0.275 OA
ATOM      9  C   UNL     1       3.031  42.963  50.815  1.00  0.00     0.035 C 
ATOM     10  C   UNL     1       4.776  41.519  51.870  1.00  0.00     0.035 C 
ATOM     11  H   UNL     1       4.687  41.539  49.018  1.00  0.00     0.164 HD
ENDBRANCH   1   3
BRANCH   1  12
ATOM     12  N   UNL     1       4.393  45.780  52.937  1.00  0.00    -0.333 N 
ATOM     13  C   UNL     1       3.845  44.842  53.915  1.00  0.00     0.120 C 
ATOM     14  C   UNL     1       5.035  46.934  53.599  1.00  0.00     0.065 C 
ATOM     15  C   UNL     1       4.422  45.229  55.264  1.00  0.00     0.024 C 
ATOM     16  C   UNL     1       4.875  46.672  55.119  1.00  0.00     0.035 C 
ATOM     17  C   UNL     1       4.254  48.224  53.258  1.00  0.00     0.040 C 
BRANCH  14  18
ATOM     18  C   UNL     1       6.537  47.012  53.260  1.00  0.00    -0.023 A 
ATOM     19  C   UNL     1       6.987  47.954  52.310  1.00  0.00     0.006 A 
ATOM     20  C   UNL     1       7.490  46.118  53.807  1.00  0.00     0.006 A 
ATOM     21  C   UNL     1       8.337  48.034  51.956  1.00  0.00     0.000 A 
ATOM     22  C   UNL     1       8.839  46.204  53.450  1.00  0.00     0.000 A 
ATOM     23  C   UNL     1       9.262  47.162  52.530  1.00  0.00     0.000 A 
ENDBRANCH  14  18
ENDBRANCH   1  12
TORSDOF 3
ENDMDL
