MODEL 1
REMARK VINA RESULT:    -8.473      0.000      0.000
REMARK INTER + INTRA:         -11.641
REMARK INTER:                 -10.950
REMARK INTRA:                  -0.691
REMARK UNBOUND:                -0.691
REMARK SMILES O=C(NC[C@H]1NCC[C@H]1C1CC1)c1ccc(N2CCCS2(=O)=O)cc1Cl
REMARK SMILES IDX 1 1 2 2 3 3 13 5 14 6 25 7 15 8 24 9 16 10 26 11 17 12 18 13
REMARK SMILES IDX 21 14 19 15 20 16 22 17 23 18 4 19 5 20 6 21 9 22 7 23 8 24
REMARK SMILES IDX 10 26 11 27 12 28
REMARK H PARENT 3 4 6 25
ROOT
ATOM      1  O   UNL     1       8.014  42.858  49.362  1.00  0.00    -0.269 OA
ATOM      2  C   UNL     1       6.782  43.128  49.362  1.00  0.00     0.252 C 
ATOM      3  N   UNL     1       6.311  44.315  50.021  1.00  0.00    -0.350 N 
ATOM      4  H   UNL     1       5.290  44.537  50.017  1.00  0.00     0.163 HD
ENDROOT
BRANCH   2   5
ATOM      5  C   UNL     1       5.829  42.208  48.699  1.00  0.00     0.058 A 
ATOM      6  C   UNL     1       5.879  42.054  47.304  1.00  0.00     0.017 A 
ATOM      7  C   UNL     1       4.857  41.491  49.429  1.00  0.00     0.055 A 
ATOM      8  C   UNL     1       4.984  41.207  46.648  1.00  0.00     0.028 A 
ATOM      9  C   UNL     1       3.964  40.644  48.764  1.00  0.00     0.048 A 
ATOM     10  C   UNL     1       4.014  40.488  47.367  1.00  0.00     0.053 A 
ATOM     11  Cl  UNL     1       4.757  41.575  51.187  1.00  0.00    -0.083 Cl
BRANCH  10  12
ATOM     12  N   UNL     1       3.086  39.615  46.683  1.00  0.00    -0.270 N 
ATOM     13  C   UNL     1       2.742  38.266  47.130  1.00  0.00     0.136 C 
ATOM     14  S   UNL     1       2.112  40.088  45.351  1.00  0.00     0.235 S 
ATOM     15  C   UNL     1       1.854  37.594  46.060  1.00  0.00     0.041 C 
ATOM     16  C   UNL     1       1.088  38.661  45.271  1.00  0.00     0.162 C 
ATOM     17  O   UNL     1       2.931  40.253  44.102  1.00  0.00    -0.206 OA
ATOM     18  O   UNL     1       1.315  41.326  45.658  1.00  0.00    -0.206 OA
ENDBRANCH  10  12
ENDBRANCH   2   5
BRANCH   3  19
ATOM     19  C   UNL     1       7.210  45.247  50.698  1.00  0.00     0.135 C 
BRANCH  19  20
ATOM     20  C   UNL     1       6.505  45.901  51.907  1.00  0.00     0.076 C 
ATOM     21  N   UNL     1       5.893  44.911  52.798  1.00  0.00    -0.312 NA
ATOM     22  C   UNL     1       7.398  46.792  52.775  1.00  0.00     0.012 C 
ATOM     23  C   UNL     1       5.809  45.550  54.115  1.00  0.00     0.081 C 
ATOM     24  C   UNL     1       6.620  46.845  54.079  1.00  0.00     0.021 C 
ATOM     25  H   UNL     1       6.536  44.087  52.885  1.00  0.00     0.123 HD
BRANCH  22  26
ATOM     26  C   UNL     1       8.798  46.183  53.024  1.00  0.00    -0.006 C 
ATOM     27  C   UNL     1       9.741  47.060  53.836  1.00  0.00     0.004 C 
ATOM     28  C   UNL     1       9.960  46.893  52.342  1.00  0.00     0.004 C 
ENDBRANCH  22  26
ENDBRANCH  19  20
ENDBRANCH   3  19
TORSDOF 5
ENDMDL
MODEL 2
REMARK VINA RESULT:    -8.033      5.366      6.735
REMARK INTER + INTRA:         -11.073
REMARK INTER:                 -10.187
REMARK INTRA:                  -0.886
REMARK UNBOUND:                -0.691
REMARK SMILES O=C(NC[C@H]1NCC[C@H]1C1CC1)c1ccc(N2CCCS2(=O)=O)cc1Cl
REMARK SMILES IDX 1 1 2 2 3 3 13 5 14 6 25 7 15 8 24 9 16 10 26 11 17 12 18 13
REMARK SMILES IDX 21 14 19 15 20 16 22 17 23 18 4 19 5 20 6 21 9 22 7 23 8 24
REMARK SMILES IDX 10 26 11 27 12 28
REMARK H PARENT 3 4 6 25
ROOT
ATOM      1  O   UNL     1       3.731  46.220  55.771  1.00  0.00    -0.269 OA
ATOM      2  C   UNL     1       3.673  45.589  54.680  1.00  0.00     0.252 C 
ATOM      3  N   UNL     1       4.884  45.156  54.039  1.00  0.00    -0.350 N 
ATOM      4  H   UNL     1       4.832  44.633  53.137  1.00  0.00     0.163 HD
ENDROOT
BRANCH   2   5
ATOM      5  C   UNL     1       2.356  45.318  54.058  1.00  0.00     0.058 A 
ATOM      6  C   UNL     1       1.469  44.428  54.686  1.00  0.00     0.017 A 
ATOM      7  C   UNL     1       1.971  45.917  52.839  1.00  0.00     0.055 A 
ATOM      8  C   UNL     1       0.228  44.139  54.117  1.00  0.00     0.028 A 
ATOM      9  C   UNL     1       0.725  45.622  52.275  1.00  0.00     0.048 A 
ATOM     10  C   UNL     1      -0.165  44.732  52.904  1.00  0.00     0.053 A 
ATOM     11  Cl  UNL     1       2.993  47.090  52.009  1.00  0.00    -0.083 Cl
BRANCH  10  12
ATOM     12  N   UNL     1      -1.450  44.427  52.316  1.00  0.00    -0.270 N 
ATOM     13  C   UNL     1      -2.607  45.319  52.356  1.00  0.00     0.136 C 
ATOM     14  S   UNL     1      -1.762  43.058  51.328  1.00  0.00     0.235 S 
ATOM     15  C   UNL     1      -3.830  44.580  51.770  1.00  0.00     0.041 C 
ATOM     16  C   UNL     1      -3.369  43.512  50.773  1.00  0.00     0.162 C 
ATOM     17  O   UNL     1      -1.792  41.791  52.136  1.00  0.00    -0.206 OA
ATOM     18  O   UNL     1      -0.788  42.963  50.186  1.00  0.00    -0.206 OA
ENDBRANCH  10  12
ENDBRANCH   2   5
BRANCH   3  19
ATOM     19  C   UNL     1       6.207  45.411  54.608  1.00  0.00     0.135 C 
BRANCH  19  20
ATOM     20  C   UNL     1       6.771  46.753  54.090  1.00  0.00     0.076 C 
ATOM     21  N   UNL     1       8.143  46.992  54.543  1.00  0.00    -0.312 NA
ATOM     22  C   UNL     1       6.769  46.913  52.567  1.00  0.00     0.012 C 
ATOM     23  C   UNL     1       8.739  47.905  53.563  1.00  0.00     0.081 C 
ATOM     24  C   UNL     1       7.799  48.011  52.363  1.00  0.00     0.021 C 
ATOM     25  H   UNL     1       8.679  46.090  54.503  1.00  0.00     0.123 HD
BRANCH  22  26
ATOM     26  C   UNL     1       7.214  45.630  51.825  1.00  0.00    -0.006 C 
ATOM     27  C   UNL     1       7.600  45.838  50.367  1.00  0.00     0.004 C 
ATOM     28  C   UNL     1       6.289  45.153  50.713  1.00  0.00     0.004 C 
ENDBRANCH  22  26
ENDBRANCH  19  20
ENDBRANCH   3  19
TORSDOF 5
ENDMDL
MODEL 3
REMARK VINA RESULT:    -7.568      1.861      2.096
REMARK INTER + INTRA:         -10.472
REMARK INTER:                  -9.980
REMARK INTRA:                  -0.492
REMARK UNBOUND:                -0.691
REMARK SMILES O=C(NC[C@H]1NCC[C@H]1C1CC1)c1ccc(N2CCCS2(=O)=O)cc1Cl
REMARK SMILES IDX 1 1 2 2 3 3 13 5 14 6 25 7 15 8 24 9 16 10 26 11 17 12 18 13
REMARK SMILES IDX 21 14 19 15 20 16 22 17 23 18 4 19 5 20 6 21 9 22 7 23 8 24
REMARK SMILES IDX 10 26 11 27 12 28
REMARK H PARENT 3 4 6 25
ROOT
ATOM      1  O   UNL     1       6.543  41.493  50.163  1.00  0.00    -0.269 OA
ATOM      2  C   UNL     1       6.227  42.259  49.213  1.00  0.00     0.252 C 
ATOM      3  N   UNL     1       6.599  43.647  49.259  1.00  0.00    -0.350 N 
ATOM      4  H   UNL     1       6.338  44.278  48.469  1.00  0.00     0.163 HD
ENDROOT
BRANCH   2   5
ATOM      5  C   UNL     1       5.458  41.726  48.065  1.00  0.00     0.058 A 
ATOM      6  C   UNL     1       5.923  41.952  46.760  1.00  0.00     0.017 A 
ATOM      7  C   UNL     1       4.257  41.007  48.244  1.00  0.00     0.055 A 
ATOM      8  C   UNL     1       5.213  41.476  45.656  1.00  0.00     0.028 A 
ATOM      9  C   UNL     1       3.550  40.533  47.134  1.00  0.00     0.048 A 
ATOM     10  C   UNL     1       4.017  40.758  45.825  1.00  0.00     0.053 A 
ATOM     11  Cl  UNL     1       3.626  40.624  49.845  1.00  0.00    -0.083 Cl
BRANCH  10  12
ATOM     12  N   UNL     1       3.281  40.270  44.680  1.00  0.00    -0.270 N 
ATOM     13  C   UNL     1       1.942  40.722  44.307  1.00  0.00     0.136 C 
ATOM     14  S   UNL     1       3.932  39.223  43.485  1.00  0.00     0.235 S 
ATOM     15  C   UNL     1       1.429  39.857  43.134  1.00  0.00     0.041 C 
ATOM     16  C   UNL     1       2.613  39.318  42.325  1.00  0.00     0.162 C 
ATOM     17  O   UNL     1       4.107  37.827  44.012  1.00  0.00    -0.206 OA
ATOM     18  O   UNL     1       5.213  39.764  42.912  1.00  0.00    -0.206 OA
ENDBRANCH  10  12
ENDBRANCH   2   5
BRANCH   3  19
ATOM     19  C   UNL     1       7.348  44.222  50.375  1.00  0.00     0.135 C 
BRANCH  19  20
ATOM     20  C   UNL     1       6.529  45.339  51.059  1.00  0.00     0.076 C 
ATOM     21  N   UNL     1       5.709  44.833  52.163  1.00  0.00    -0.312 NA
ATOM     22  C   UNL     1       7.356  46.503  51.613  1.00  0.00     0.012 C 
ATOM     23  C   UNL     1       5.485  45.974  53.056  1.00  0.00     0.081 C 
ATOM     24  C   UNL     1       6.400  47.119  52.621  1.00  0.00     0.021 C 
ATOM     25  H   UNL     1       6.259  44.116  52.696  1.00  0.00     0.123 HD
BRANCH  22  26
ATOM     26  C   UNL     1       8.646  46.039  52.329  1.00  0.00    -0.006 C 
ATOM     27  C   UNL     1       9.417  47.144  53.038  1.00  0.00     0.004 C 
ATOM     28  C   UNL     1       9.953  46.556  51.743  1.00  0.00     0.004 C 
ENDBRANCH  22  26
ENDBRANCH  19  20
ENDBRANCH   3  19
TORSDOF 5
ENDMDL
MODEL 4
REMARK VINA RESULT:    -7.518      5.831      9.013
REMARK INTER + INTRA:         -10.407
REMARK INTER:                  -9.751
REMARK INTRA:                  -0.657
REMARK UNBOUND:                -0.691
REMARK SMILES O=C(NC[C@H]1NCC[C@H]1C1CC1)c1ccc(N2CCCS2(=O)=O)cc1Cl
REMARK SMILES IDX 1 1 2 2 3 3 13 5 14 6 25 7 15 8 24 9 16 10 26 11 17 12 18 13
REMARK SMILES IDX 21 14 19 15 20 16 22 17 23 18 4 19 5 20 6 21 9 22 7 23 8 24
REMARK SMILES IDX 10 26 11 27 12 28
REMARK H PARENT 3 4 6 25
ROOT
ATOM      1  O   UNL     1       1.301  43.036  50.453  1.00  0.00    -0.269 OA
ATOM      2  C   UNL     1       1.804  43.269  51.585  1.00  0.00     0.252 C 
ATOM      3  N   UNL     1       1.090  42.898  52.775  1.00  0.00    -0.350 N 
ATOM      4  H   UNL     1       1.511  43.091  53.712  1.00  0.00     0.163 HD
ENDROOT
BRANCH   2   5
ATOM      5  C   UNL     1       3.122  43.940  51.679  1.00  0.00     0.058 A 
ATOM      6  C   UNL     1       4.274  43.255  51.261  1.00  0.00     0.017 A 
ATOM      7  C   UNL     1       3.255  45.248  52.193  1.00  0.00     0.055 A 
ATOM      8  C   UNL     1       5.532  43.854  51.352  1.00  0.00     0.028 A 
ATOM      9  C   UNL     1       4.520  45.842  52.281  1.00  0.00     0.048 A 
ATOM     10  C   UNL     1       5.675  45.156  51.861  1.00  0.00     0.053 A 
ATOM     11  Cl  UNL     1       1.861  46.206  52.687  1.00  0.00    -0.083 Cl
BRANCH  10  12
ATOM     12  N   UNL     1       6.979  45.772  51.957  1.00  0.00    -0.270 N 
ATOM     13  C   UNL     1       8.051  45.589  50.981  1.00  0.00     0.136 C 
ATOM     14  S   UNL     1       7.410  46.951  53.129  1.00  0.00     0.235 S 
ATOM     15  C   UNL     1       9.334  46.268  51.510  1.00  0.00     0.041 C 
ATOM     16  C   UNL     1       8.966  47.416  52.454  1.00  0.00     0.162 C 
ATOM     17  O   UNL     1       7.558  46.341  54.495  1.00  0.00    -0.206 OA
ATOM     18  O   UNL     1       6.443  48.103  53.139  1.00  0.00    -0.206 OA
ENDBRANCH  10  12
ENDBRANCH   2   5
BRANCH   3  19
ATOM     19  C   UNL     1      -0.217  42.245  52.734  1.00  0.00     0.135 C 
BRANCH  19  20
ATOM     20  C   UNL     1      -1.341  43.291  52.559  1.00  0.00     0.076 C 
ATOM     21  N   UNL     1      -2.676  42.694  52.650  1.00  0.00    -0.312 NA
ATOM     22  C   UNL     1      -1.304  44.456  53.552  1.00  0.00     0.012 C 
ATOM     23  C   UNL     1      -3.575  43.776  53.063  1.00  0.00     0.081 C 
ATOM     24  C   UNL     1      -2.729  44.978  53.481  1.00  0.00     0.021 C 
ATOM     25  H   UNL     1      -2.677  41.972  53.412  1.00  0.00     0.123 HD
BRANCH  22  26
ATOM     26  C   UNL     1      -0.981  44.007  54.997  1.00  0.00    -0.006 C 
ATOM     27  C   UNL     1      -1.373  45.005  56.078  1.00  0.00     0.004 C 
ATOM     28  C   UNL     1       0.090  44.815  55.717  1.00  0.00     0.004 C 
ENDBRANCH  22  26
ENDBRANCH  19  20
ENDBRANCH   3  19
TORSDOF 5
ENDMDL
MODEL 5
REMARK VINA RESULT:    -7.465      3.281      9.574
REMARK INTER + INTRA:         -10.338
REMARK INTER:                 -10.103
REMARK INTRA:                  -0.235
REMARK UNBOUND:                -0.691
REMARK SMILES O=C(NC[C@H]1NCC[C@H]1C1CC1)c1ccc(N2CCCS2(=O)=O)cc1Cl
REMARK SMILES IDX 1 1 2 2 3 3 13 5 14 6 25 7 15 8 24 9 16 10 26 11 17 12 18 13
REMARK SMILES IDX 21 14 19 15 20 16 22 17 23 18 4 19 5 20 6 21 9 22 7 23 8 24
REMARK SMILES IDX 10 26 11 27 12 28
REMARK H PARENT 3 4 6 25
ROOT
ATOM      1  O   UNL     1       3.551  40.404  50.411  1.00  0.00    -0.269 OA
ATOM      2  C   UNL     1       4.192  41.136  49.608  1.00  0.00     0.252 C 
ATOM      3  N   UNL     1       4.218  40.811  48.209  1.00  0.00    -0.350 N 
ATOM      4  H   UNL     1       4.748  41.420  47.546  1.00  0.00     0.163 HD
ENDROOT
BRANCH   2   5
ATOM      5  C   UNL     1       4.930  42.314  50.119  1.00  0.00     0.058 A 
ATOM      6  C   UNL     1       6.131  42.696  49.500  1.00  0.00     0.017 A 
ATOM      7  C   UNL     1       4.468  43.059  51.225  1.00  0.00     0.055 A 
ATOM      8  C   UNL     1       6.859  43.791  49.968  1.00  0.00     0.028 A 
ATOM      9  C   UNL     1       5.202  44.157  51.688  1.00  0.00     0.048 A 
ATOM     10  C   UNL     1       6.405  44.540  51.068  1.00  0.00     0.053 A 
ATOM     11  Cl  UNL     1       2.942  42.692  52.029  1.00  0.00    -0.083 Cl
BRANCH  10  12
ATOM     12  N   UNL     1       7.162  45.672  51.552  1.00  0.00    -0.270 N 
ATOM     13  C   UNL     1       8.363  46.199  50.906  1.00  0.00     0.136 C 
ATOM     14  S   UNL     1       6.671  46.681  52.852  1.00  0.00     0.235 S 
ATOM     15  C   UNL     1       8.976  47.297  51.803  1.00  0.00     0.041 C 
ATOM     16  C   UNL     1       7.883  47.942  52.660  1.00  0.00     0.162 C 
ATOM     17  O   UNL     1       6.806  45.980  54.174  1.00  0.00    -0.206 OA
ATOM     18  O   UNL     1       5.280  47.213  52.647  1.00  0.00    -0.206 OA
ENDBRANCH  10  12
ENDBRANCH   2   5
BRANCH   3  19
ATOM     19  C   UNL     1       3.515  39.652  47.659  1.00  0.00     0.135 C 
BRANCH  19  20
ATOM     20  C   UNL     1       3.154  39.889  46.176  1.00  0.00     0.076 C 
ATOM     21  N   UNL     1       4.338  39.930  45.314  1.00  0.00    -0.312 NA
ATOM     22  C   UNL     1       2.196  38.860  45.570  1.00  0.00     0.012 C 
ATOM     23  C   UNL     1       3.875  39.561  43.973  1.00  0.00     0.081 C 
ATOM     24  C   UNL     1       2.444  39.036  44.081  1.00  0.00     0.021 C 
ATOM     25  H   UNL     1       5.017  39.195  45.630  1.00  0.00     0.123 HD
BRANCH  22  26
ATOM     26  C   UNL     1       2.524  37.408  45.989  1.00  0.00    -0.006 C 
ATOM     27  C   UNL     1       1.689  36.339  45.299  1.00  0.00     0.004 C 
ATOM     28  C   UNL     1       1.433  36.677  46.758  1.00  0.00     0.004 C 
ENDBRANCH  22  26
ENDBRANCH  19  20
ENDBRANCH   3  19
TORSDOF 5
ENDMDL
