MODEL 1
REMARK VINA RESULT:    -7.343      0.000      0.000
REMARK INTER + INTRA:         -10.773
REMARK INTER:                 -10.778
REMARK INTRA:                   0.004
REMARK UNBOUND:                 0.004
REMARK SMILES CC[C@H]1Cc2ccccc2CN1C(=O)[C@H]1CCc2nncn2CC1
REMARK SMILES IDX 15 1 13 2 14 3 12 4 3 5 4 6 5 7 11 8 6 9 10 10 7 11 9 12
REMARK SMILES IDX 8 13 2 14 1 15 16 16 24 18 23 19 22 20 21 21 18 22 20 23
REMARK SMILES IDX 19 24 17 25
REMARK H PARENT
REMARK Flexibility Score:   51.900
ROOT
ATOM      1  C   UNL     1       1.813  44.347  53.787  1.00  0.00     0.081 C 
ENDROOT
BRANCH   1   2
ATOM      2  C   UNL     1       2.393  44.629  52.416  1.00  0.00     0.226 C 
ATOM      3  O   UNL     1       1.611  44.932  51.473  1.00  0.00    -0.275 OA
BRANCH   2   4
ATOM      4  N   UNL     1       3.809  44.524  52.158  1.00  0.00    -0.335 N 
ATOM      5  C   UNL     1       4.739  45.471  52.795  1.00  0.00     0.089 C 
ATOM      6  C   UNL     1       5.673  46.055  51.729  1.00  0.00     0.061 C 
ATOM      7  C   UNL     1       6.300  44.979  50.883  1.00  0.00    -0.041 A 
ATOM      8  C   UNL     1       4.341  43.406  51.361  1.00  0.00     0.155 C 
ATOM      9  C   UNL     1       7.513  45.239  50.225  1.00  0.00     0.004 A 
ATOM     10  C   UNL     1       5.648  43.741  50.679  1.00  0.00    -0.025 A 
ATOM     11  C   UNL     1       8.090  44.272  49.399  1.00  0.00     0.000 A 
ATOM     12  C   UNL     1       6.242  42.778  49.848  1.00  0.00     0.006 A 
ATOM     13  C   UNL     1       7.457  43.043  49.212  1.00  0.00     0.000 A 
BRANCH   5  14
ATOM     14  C   UNL     1       5.529  44.792  53.936  1.00  0.00     0.022 C 
ATOM     15  C   UNL     1       4.999  45.187  55.314  1.00  0.00     0.006 C 
ENDBRANCH   5  14
ENDBRANCH   2   4
ENDBRANCH   1   2
BRANCH   1  16
ATOM     16  C   UNL     1       1.390  45.672  54.478  1.00  0.00     0.021 CG0
ATOM     17  G   UNL     1       1.154  45.565  55.994  1.00  0.00     0.000 G0
ENDBRANCH   1  16
BRANCH   1  18
ATOM     18  C   UNL     1       0.643  43.339  53.678  1.00  0.00     0.035 C 
BRANCH  18  19
ATOM     19  C   UNL     1      -0.731  43.946  54.039  1.00  0.00     0.126 C 
BRANCH  19  20
ATOM     20  N   UNL     1      -0.916  44.218  55.471  1.00  0.00    -0.318 N 
ATOM     21  C   UNL     1      -1.985  43.872  56.210  1.00  0.00     0.225 A 
ATOM     22  C   UNL     1      -0.155  44.922  56.334  1.00  0.00     0.132 A 
ATOM     23  N   UNL     1      -1.871  44.325  57.474  1.00  0.00    -0.139 NA
ATOM     24  N   UNL     1      -0.724  44.983  57.553  1.00  0.00    -0.136 NA
BRANCH  22  25
ATOM     25  C   UNL     1       1.159  45.551  55.999  1.00  0.00     0.078 CG0
ATOM     26  G   UNL     1       1.374  45.681  54.481  1.00  0.00     0.000 G0
ENDBRANCH  22  25
ENDBRANCH  19  20
ENDBRANCH  18  19
ENDBRANCH   1  18
TORSDOF 3
ENDMDL
MODEL 2
REMARK VINA RESULT:    -7.134      1.771      2.297
REMARK INTER + INTRA:         -10.466
REMARK INTER:                 -10.460
REMARK INTRA:                  -0.006
REMARK UNBOUND:                 0.004
REMARK SMILES CC[C@H]1Cc2ccccc2CN1C(=O)[C@H]1CCc2nncn2CC1
REMARK SMILES IDX 15 1 13 2 14 3 12 4 3 5 4 6 5 7 11 8 6 9 10 10 7 11 9 12
REMARK SMILES IDX 8 13 2 14 1 15 16 16 24 18 23 19 22 20 21 21 18 22 20 23
REMARK SMILES IDX 19 24 17 25
REMARK H PARENT
REMARK Flexibility Score:   51.900
ROOT
ATOM      1  C   UNL     1       1.986  45.275  53.195  1.00  0.00     0.081 C 
ENDROOT
BRANCH   1   2
ATOM      2  C   UNL     1       3.258  46.095  53.122  1.00  0.00     0.226 C 
ATOM      3  O   UNL     1       3.221  47.311  53.457  1.00  0.00    -0.275 OA
BRANCH   2   4
ATOM      4  N   UNL     1       4.498  45.528  52.646  1.00  0.00    -0.335 N 
ATOM      5  C   UNL     1       5.777  46.150  53.026  1.00  0.00     0.089 C 
ATOM      6  C   UNL     1       6.630  46.357  51.768  1.00  0.00     0.061 C 
ATOM      7  C   UNL     1       6.722  45.102  50.941  1.00  0.00    -0.041 A 
ATOM      8  C   UNL     1       4.498  44.267  51.887  1.00  0.00     0.155 C 
ATOM      9  C   UNL     1       7.810  44.930  50.071  1.00  0.00     0.004 A 
ATOM     10  C   UNL     1       5.693  44.134  50.970  1.00  0.00    -0.025 A 
ATOM     11  C   UNL     1       7.895  43.796  49.261  1.00  0.00     0.000 A 
ATOM     12  C   UNL     1       5.792  42.997  50.152  1.00  0.00     0.006 A 
ATOM     13  C   UNL     1       6.889  42.830  49.302  1.00  0.00     0.000 A 
BRANCH   5  14
ATOM     14  C   UNL     1       6.516  45.299  54.083  1.00  0.00     0.022 C 
ATOM     15  C   UNL     1       5.610  44.928  55.256  1.00  0.00     0.006 C 
ENDBRANCH   5  14
ENDBRANCH   2   4
ENDBRANCH   1   2
BRANCH   1  16
ATOM     16  C   UNL     1       1.483  45.189  54.661  1.00  0.00     0.021 CG0
ATOM     17  G   UNL     1       0.089  44.558  54.831  1.00  0.00     0.000 G0
ENDBRANCH   1  16
BRANCH   1  18
ATOM     18  C   UNL     1       0.918  45.856  52.237  1.00  0.00     0.035 C 
BRANCH  18  19
ATOM     19  C   UNL     1      -0.058  44.794  51.684  1.00  0.00     0.126 C 
BRANCH  19  20
ATOM     20  N   UNL     1      -0.170  43.584  52.510  1.00  0.00    -0.318 N 
ATOM     21  C   UNL     1      -0.416  42.340  52.063  1.00  0.00     0.225 A 
ATOM     22  C   UNL     1      -0.149  43.434  53.851  1.00  0.00     0.132 A 
ATOM     23  N   UNL     1      -0.520  41.465  53.083  1.00  0.00    -0.139 NA
ATOM     24  N   UNL     1      -0.351  42.151  54.204  1.00  0.00    -0.136 NA
BRANCH  22  25
ATOM     25  C   UNL     1       0.079  44.539  54.832  1.00  0.00     0.078 CG0
ATOM     26  G   UNL     1       1.468  45.182  54.673  1.00  0.00     0.000 G0
ENDBRANCH  22  25
ENDBRANCH  19  20
ENDBRANCH  18  19
ENDBRANCH   1  18
TORSDOF 3
ENDMDL
MODEL 3
REMARK VINA RESULT:    -7.074      1.698      2.341
REMARK INTER + INTRA:         -10.378
REMARK INTER:                 -10.984
REMARK INTRA:                   0.606
REMARK UNBOUND:                 0.004
REMARK SMILES CC[C@H]1Cc2ccccc2CN1C(=O)[C@H]1CCc2nncn2CC1
REMARK SMILES IDX 15 1 13 2 14 3 12 4 3 5 4 6 5 7 11 8 6 9 10 10 7 11 9 12
REMARK SMILES IDX 8 13 2 14 1 15 16 16 24 18 23 19 22 20 21 21 18 22 20 23
REMARK SMILES IDX 19 24 17 25
REMARK H PARENT
REMARK Flexibility Score:   51.900
ROOT
ATOM      1  C   UNL     1       1.861  44.971  53.165  1.00  0.00     0.081 C 
ENDROOT
BRANCH   1   2
ATOM      2  C   UNL     1       2.922  45.905  52.621  1.00  0.00     0.226 C 
ATOM      3  O   UNL     1       2.624  47.113  52.415  1.00  0.00    -0.275 OA
BRANCH   2   4
ATOM      4  N   UNL     1       4.249  45.437  52.299  1.00  0.00    -0.335 N 
ATOM      5  C   UNL     1       5.418  46.064  52.937  1.00  0.00     0.089 C 
ATOM      6  C   UNL     1       6.445  46.430  51.858  1.00  0.00     0.061 C 
ATOM      7  C   UNL     1       6.732  45.271  50.941  1.00  0.00    -0.041 A 
ATOM      8  C   UNL     1       4.436  44.260  51.433  1.00  0.00     0.155 C 
ATOM      9  C   UNL     1       7.951  45.230  50.245  1.00  0.00     0.004 A 
ATOM     10  C   UNL     1       5.764  44.267  50.712  1.00  0.00    -0.025 A 
ATOM     11  C   UNL     1       8.221  44.189  49.355  1.00  0.00     0.000 A 
ATOM     12  C   UNL     1       6.051  43.225  49.816  1.00  0.00     0.006 A 
ATOM     13  C   UNL     1       7.274  43.187  49.142  1.00  0.00     0.000 A 
BRANCH   5  14
ATOM     14  C   UNL     1       6.027  45.138  54.013  1.00  0.00     0.022 C 
ATOM     15  C   UNL     1       5.215  45.152  55.308  1.00  0.00     0.006 C 
ENDBRANCH   5  14
ENDBRANCH   2   4
ENDBRANCH   1   2
BRANCH   1  16
ATOM     16  C   UNL     1       2.301  43.492  52.989  1.00  0.00     0.021 CG0
ATOM     17  G   UNL     1       1.269  42.450  53.454  1.00  0.00     0.000 G0
ENDBRANCH   1  16
BRANCH   1  18
ATOM     18  C   UNL     1       1.544  45.320  54.639  1.00  0.00     0.035 C 
BRANCH  18  19
ATOM     19  C   UNL     1       0.121  44.911  55.078  1.00  0.00     0.126 C 
BRANCH  19  20
ATOM     20  N   UNL     1      -0.578  44.032  54.130  1.00  0.00    -0.318 N 
ATOM     21  C   UNL     1      -1.884  44.086  53.816  1.00  0.00     0.225 A 
ATOM     22  C   UNL     1      -0.137  42.956  53.446  1.00  0.00     0.132 A 
ATOM     23  N   UNL     1      -2.222  43.099  52.963  1.00  0.00    -0.139 NA
ATOM     24  N   UNL     1      -1.127  42.391  52.729  1.00  0.00    -0.136 NA
BRANCH  22  25
ATOM     25  C   UNL     1       1.269  42.448  53.463  1.00  0.00     0.078 CG0
ATOM     26  G   UNL     1       2.278  43.510  52.991  1.00  0.00     0.000 G0
ENDBRANCH  22  25
ENDBRANCH  19  20
ENDBRANCH  18  19
ENDBRANCH   1  18
TORSDOF 3
ENDMDL
MODEL 4
REMARK VINA RESULT:    -7.022      2.402      3.216
REMARK INTER + INTRA:         -10.302
REMARK INTER:                 -10.487
REMARK INTRA:                   0.186
REMARK UNBOUND:                 0.004
REMARK SMILES CC[C@H]1Cc2ccccc2CN1C(=O)[C@H]1CCc2nncn2CC1
REMARK SMILES IDX 15 1 13 2 14 3 12 4 3 5 4 6 5 7 11 8 6 9 10 10 7 11 9 12
REMARK SMILES IDX 8 13 2 14 1 15 16 16 24 18 23 19 22 20 21 21 18 22 20 23
REMARK SMILES IDX 19 24 17 25
REMARK H PARENT
REMARK Flexibility Score:   51.900
ROOT
ATOM      1  C   UNL     1       2.586  44.998  51.930  1.00  0.00     0.081 C 
ENDROOT
BRANCH   1   2
ATOM      2  C   UNL     1       3.724  45.855  51.415  1.00  0.00     0.226 C 
ATOM      3  O   UNL     1       3.533  46.578  50.398  1.00  0.00    -0.275 OA
BRANCH   2   4
ATOM      4  N   UNL     1       5.028  45.836  52.035  1.00  0.00    -0.335 N 
ATOM      5  C   UNL     1       5.146  46.038  53.489  1.00  0.00     0.089 C 
ATOM      6  C   UNL     1       6.211  47.107  53.764  1.00  0.00     0.061 C 
ATOM      7  C   UNL     1       7.493  46.823  53.027  1.00  0.00    -0.041 A 
ATOM      8  C   UNL     1       6.224  45.496  51.248  1.00  0.00     0.155 C 
ATOM      9  C   UNL     1       8.698  47.356  53.511  1.00  0.00     0.004 A 
ATOM     10  C   UNL     1       7.491  46.094  51.816  1.00  0.00    -0.025 A 
ATOM     11  C   UNL     1       9.893  47.144  52.821  1.00  0.00     0.000 A 
ATOM     12  C   UNL     1       8.700  45.886  51.134  1.00  0.00     0.006 A 
ATOM     13  C   UNL     1       9.895  46.409  51.636  1.00  0.00     0.000 A 
BRANCH   5  14
ATOM     14  C   UNL     1       5.470  44.711  54.210  1.00  0.00     0.022 C 
ATOM     15  C   UNL     1       5.776  44.924  55.692  1.00  0.00     0.006 C 
ENDBRANCH   5  14
ENDBRANCH   2   4
ENDBRANCH   1   2
BRANCH   1  16
ATOM     16  C   UNL     1       1.459  45.892  52.514  1.00  0.00     0.021 CG0
ATOM     17  G   UNL     1       0.040  45.312  52.383  1.00  0.00     0.000 G0
ENDBRANCH   1  16
BRANCH   1  18
ATOM     18  C   UNL     1       2.075  44.058  50.813  1.00  0.00     0.035 C 
BRANCH  18  19
ATOM     19  C   UNL     1       1.508  42.721  51.343  1.00  0.00     0.126 C 
BRANCH  19  20
ATOM     20  N   UNL     1       0.616  42.858  52.502  1.00  0.00    -0.318 N 
ATOM     21  C   UNL     1       0.211  41.862  53.310  1.00  0.00     0.225 A 
ATOM     22  C   UNL     1      -0.057  43.930  52.968  1.00  0.00     0.132 A 
ATOM     23  N   UNL     1      -0.654  42.310  54.241  1.00  0.00    -0.139 NA
ATOM     24  N   UNL     1      -0.822  43.607  54.028  1.00  0.00    -0.136 NA
BRANCH  22  25
ATOM     25  C   UNL     1       0.033  45.309  52.399  1.00  0.00     0.078 CG0
ATOM     26  G   UNL     1       1.451  45.895  52.510  1.00  0.00     0.000 G0
ENDBRANCH  22  25
ENDBRANCH  19  20
ENDBRANCH  18  19
ENDBRANCH   1  18
TORSDOF 3
ENDMDL
MODEL 5
REMARK VINA RESULT:    -6.666      1.844      2.425
REMARK INTER + INTRA:          -9.779
REMARK INTER:                 -10.127
REMARK INTRA:                   0.349
REMARK UNBOUND:                 0.004
REMARK SMILES CC[C@H]1Cc2ccccc2CN1C(=O)[C@H]1CCc2nncn2CC1
REMARK SMILES IDX 15 1 13 2 14 3 12 4 3 5 4 6 5 7 11 8 6 9 10 10 7 11 9 12
REMARK SMILES IDX 8 13 2 14 1 15 16 16 24 18 23 19 22 20 21 21 18 22 20 23
REMARK SMILES IDX 19 24 17 25
REMARK H PARENT
REMARK Flexibility Score:   51.900
ROOT
ATOM      1  C   UNL     1       1.237  44.494  51.532  1.00  0.00     0.081 C 
ENDROOT
BRANCH   1   2
ATOM      2  C   UNL     1       2.272  43.547  52.102  1.00  0.00     0.226 C 
ATOM      3  O   UNL     1       1.885  42.543  52.762  1.00  0.00    -0.275 OA
BRANCH   2   4
ATOM      4  N   UNL     1       3.687  43.785  51.940  1.00  0.00    -0.335 N 
ATOM      5  C   UNL     1       4.316  44.931  52.616  1.00  0.00     0.089 C 
ATOM      6  C   UNL     1       5.154  45.718  51.600  1.00  0.00     0.061 C 
ATOM      7  C   UNL     1       6.078  44.819  50.821  1.00  0.00    -0.041 A 
ATOM      8  C   UNL     1       4.526  42.823  51.205  1.00  0.00     0.155 C 
ATOM      9  C   UNL     1       7.235  45.360  50.239  1.00  0.00     0.004 A 
ATOM     10  C   UNL     1       5.757  43.460  50.602  1.00  0.00    -0.025 A 
ATOM     11  C   UNL     1       8.083  44.556  49.474  1.00  0.00     0.000 A 
ATOM     12  C   UNL     1       6.621  42.663  49.834  1.00  0.00     0.006 A 
ATOM     13  C   UNL     1       7.778  43.210  49.274  1.00  0.00     0.000 A 
BRANCH   5  14
ATOM     14  C   UNL     1       5.165  44.469  53.821  1.00  0.00     0.022 C 
ATOM     15  C   UNL     1       6.090  45.575  54.328  1.00  0.00     0.006 C 
ENDBRANCH   5  14
ENDBRANCH   2   4
ENDBRANCH   1   2
BRANCH   1  16
ATOM     16  C   UNL     1      -0.072  43.727  51.202  1.00  0.00     0.021 CG0
ATOM     17  G   UNL     1      -1.345  44.314  51.838  1.00  0.00     0.000 G0
ENDBRANCH   1  16
BRANCH   1  18
ATOM     18  C   UNL     1       0.999  45.676  52.503  1.00  0.00     0.035 C 
BRANCH  18  19
ATOM     19  C   UNL     1       0.771  45.237  53.966  1.00  0.00     0.126 C 
BRANCH  19  20
ATOM     20  N   UNL     1      -0.497  44.533  54.198  1.00  0.00    -0.318 N 
ATOM     21  C   UNL     1      -0.957  44.100  55.386  1.00  0.00     0.225 A 
ATOM     22  C   UNL     1      -1.423  44.086  53.325  1.00  0.00     0.132 A 
ATOM     23  N   UNL     1      -2.121  43.437  55.246  1.00  0.00    -0.139 NA
ATOM     24  N   UNL     1      -2.415  43.429  53.954  1.00  0.00    -0.136 NA
BRANCH  22  25
ATOM     25  C   UNL     1      -1.375  44.296  51.845  1.00  0.00     0.078 CG0
ATOM     26  G   UNL     1      -0.088  43.729  51.218  1.00  0.00     0.000 G0
ENDBRANCH  22  25
ENDBRANCH  19  20
ENDBRANCH  18  19
ENDBRANCH   1  18
TORSDOF 3
ENDMDL
