ligand_64_conformer_5_docked
     RDKit          3D

 40 42  0  0  0  0  0  0  0  0999 V2000
    8.3950   45.5460   50.8210 O   0  0  0  0  0  0  0  0  0  0  0  0
    8.5880   46.2240   51.8650 C   0  0  0  0  0  0  0  0  0  0  0  0
    9.9030   46.8380   52.2100 C   0  0  0  0  0  0  0  0  0  0  0  0
    9.6770   47.4410   53.6100 C   0  0  0  0  0  0  0  0  0  0  0  0
    8.2490   47.1300   53.9080 C   0  0  0  0  0  0  0  0  0  0  0  0
    7.6710   47.4740   54.9730 O   0  0  0  0  0  0  0  0  0  0  0  0
    7.5970   46.4260   52.8630 N   0  0  0  0  0  0  0  0  0  0  0  0
    6.2500   45.9160   52.8900 C   0  0  0  0  0  0  0  0  0  0  0  0
    5.2570   46.4390   52.0470 C   0  0  0  0  0  0  0  0  0  0  0  0
    3.9610   45.9260   52.1090 C   0  0  0  0  0  0  0  0  0  0  0  0
    3.6560   44.9030   53.0140 C   0  0  0  0  0  0  0  0  0  0  0  0
    2.0260   44.2450   53.1180 S   0  0  0  0  0  0  0  0  0  0  0  0
    1.5850   44.1810   54.5550 O   0  0  0  0  0  0  0  0  0  0  0  0
    1.0890   45.1380   52.3550 O   0  0  0  0  0  0  0  0  0  0  0  0
    1.9890   42.6490   52.4300 N   0  0  0  0  0  0  0  0  0  0  0  0
    2.4280   42.6980   51.0330 C   0  0  0  0  0  0  0  0  0  0  0  0
    3.6930   41.8450   50.8510 C   0  0  2  0  0  0  0  0  0  0  0  0
    4.9290   42.6710   50.6310 C   0  0  0  0  0  0  0  0  0  0  0  0
    5.7890   41.7630   49.7730 C   0  0  0  0  0  0  0  0  0  0  0  0
    4.9760   40.8060   49.1310 O   0  0  0  0  0  0  0  0  0  0  0  0
    3.6590   40.9770   49.6030 C   0  0  0  0  0  0  0  0  0  0  0  0
    4.6690   44.4110   53.8440 C   0  0  0  0  0  0  0  0  0  0  0  0
    5.9250   44.9250   53.7650 N   0  0  0  0  0  0  0  0  0  0  0  0
   10.6957   46.0758   52.2359 H   0  0  0  0  0  0  0  0  0  0  0  0
   10.2264   47.5880   51.4732 H   0  0  0  0  0  0  0  0  0  0  0  0
   10.3423   46.9724   54.3501 H   0  0  0  0  0  0  0  0  0  0  0  0
    9.8933   48.5189   53.6477 H   0  0  0  0  0  0  0  0  0  0  0  0
    5.4990   47.2480   51.3421 H   0  0  0  0  0  0  0  0  0  0  0  0
    3.1790   46.3256   51.4466 H   0  0  0  0  0  0  0  0  0  0  0  0
    2.6720   42.0680   52.9680 H   0  0  0  0  0  0  0  0  0  0  0  0
    1.6288   42.3075   50.3858 H   0  0  0  0  0  0  0  0  0  0  0  0
    2.6520   43.7399   50.7606 H   0  0  0  0  0  0  0  0  0  0  0  0
    3.7184   41.2594   51.7818 H   0  0  0  0  0  0  0  0  0  0  0  0
    4.6919   43.6069   50.1039 H   0  0  0  0  0  0  0  0  0  0  0  0
    5.4191   42.9805   51.5659 H   0  0  0  0  0  0  0  0  0  0  0  0
    6.3134   42.3644   49.0158 H   0  0  0  0  0  0  0  0  0  0  0  0
    6.5238   41.2486   50.4098 H   0  0  0  0  0  0  0  0  0  0  0  0
    3.0498   41.4666   48.8290 H   0  0  0  0  0  0  0  0  0  0  0  0
    3.2180   39.9979   49.8414 H   0  0  0  0  0  0  0  0  0  0  0  0
    4.4488   43.6070   54.5617 H   0  0  0  0  0  0  0  0  0  0  0  0
  1  2  2  0
  2  3  1  0
  3  4  1  0
  4  5  1  0
  5  6  2  0
  5  7  1  0
  7  8  1  0
  8  9  2  0
  9 10  1  0
 10 11  2  0
 11 12  1  0
 12 13  2  0
 12 14  2  0
 12 15  1  0
 15 16  1  0
 16 17  1  0
 17 18  1  0
 18 19  1  0
 19 20  1  0
 20 21  1  0
 11 22  1  0
 22 23  2  0
  7  2  1  0
 23  8  1  0
 21 17  1  0
  3 24  1  0
  3 25  1  0
  4 26  1  0
  4 27  1  0
  9 28  1  0
 10 29  1  0
 15 30  1  0
 16 31  1  0
 16 32  1  0
 17 33  1  1
 18 34  1  0
 18 35  1  0
 19 36  1  0
 19 37  1  0
 21 38  1  0
 21 39  1  0
 22 40  1  0
M  END
>  <meeko>  (1) 
{"is_sidechain": [false], "free_energy": -8.565, "intermolecular_energy": -11.069, "internal_energy": -0.922}

$$$$
ligand_64_conformer_5_docked
     RDKit          3D

 40 42  0  0  0  0  0  0  0  0999 V2000
    7.5030   47.4680   55.0050 O   0  0  0  0  0  0  0  0  0  0  0  0
    8.3090   47.0880   54.1140 C   0  0  0  0  0  0  0  0  0  0  0  0
    9.7470   47.4840   54.0900 C   0  0  0  0  0  0  0  0  0  0  0  0
   10.2750   46.8890   52.7700 C   0  0  0  0  0  0  0  0  0  0  0  0
    9.0880   46.1950   52.1900 C   0  0  0  0  0  0  0  0  0  0  0  0
    9.1180   45.5660   51.0980 O   0  0  0  0  0  0  0  0  0  0  0  0
    7.9270   46.2960   52.9980 N   0  0  0  0  0  0  0  0  0  0  0  0
    6.6150   45.8040   52.6680 C   0  0  0  0  0  0  0  0  0  0  0  0
    6.0090   46.1120   51.4400 C   0  0  0  0  0  0  0  0  0  0  0  0
    4.7320   45.6250   51.1600 C   0  0  0  0  0  0  0  0  0  0  0  0
    4.0600   44.8420   52.1030 C   0  0  0  0  0  0  0  0  0  0  0  0
    2.4440   44.2220   51.7780 S   0  0  0  0  0  0  0  0  0  0  0  0
    1.6590   44.1240   53.0580 O   0  0  0  0  0  0  0  0  0  0  0  0
    1.7400   45.1630   50.8410 O   0  0  0  0  0  0  0  0  0  0  0  0
    2.5500   42.6510   51.0430 N   0  0  0  0  0  0  0  0  0  0  0  0
    3.6160   41.8730   51.6820 C   0  0  0  0  0  0  0  0  0  0  0  0
    4.4680   41.1730   50.6130 C   0  0  2  0  0  0  0  0  0  0  0  0
    5.5400   42.0600   50.0470 C   0  0  0  0  0  0  0  0  0  0  0  0
    5.7020   41.5300   48.6350 C   0  0  0  0  0  0  0  0  0  0  0  0
    4.5380   40.8300   48.2550 O   0  0  0  0  0  0  0  0  0  0  0  0
    3.6790   40.7890   49.3710 C   0  0  0  0  0  0  0  0  0  0  0  0
    4.6900   44.5590   53.3200 C   0  0  0  0  0  0  0  0  0  0  0  0
    5.9350   45.0440   53.5710 N   0  0  0  0  0  0  0  0  0  0  0  0
    9.8512   48.5790   54.0947 H   0  0  0  0  0  0  0  0  0  0  0  0
   10.3007   47.1224   54.9690 H   0  0  0  0  0  0  0  0  0  0  0  0
   10.6315   47.6831   52.0975 H   0  0  0  0  0  0  0  0  0  0  0  0
   11.1300   46.2136   52.9208 H   0  0  0  0  0  0  0  0  0  0  0  0
    6.5379   46.7338   50.7027 H   0  0  0  0  0  0  0  0  0  0  0  0
    4.2538   45.8572   50.1970 H   0  0  0  0  0  0  0  0  0  0  0  0
    1.6410   42.1670   51.2220 H   0  0  0  0  0  0  0  0  0  0  0  0
    4.2542   42.5463   52.2731 H   0  0  0  0  0  0  0  0  0  0  0  0
    3.1654   41.1142   52.3387 H   0  0  0  0  0  0  0  0  0  0  0  0
    4.8625   40.3029   51.1583 H   0  0  0  0  0  0  0  0  0  0  0  0
    5.2213   43.1128   50.0412 H   0  0  0  0  0  0  0  0  0  0  0  0
    6.4731   42.0421   50.6292 H   0  0  0  0  0  0  0  0  0  0  0  0
    5.8649   42.3710   47.9449 H   0  0  0  0  0  0  0  0  0  0  0  0
    6.5656   40.8497   48.5974 H   0  0  0  0  0  0  0  0  0  0  0  0
    2.8506   41.4979   49.2258 H   0  0  0  0  0  0  0  0  0  0  0  0
    3.2681   39.7754   49.4886 H   0  0  0  0  0  0  0  0  0  0  0  0
    4.1775   43.9437   54.0741 H   0  0  0  0  0  0  0  0  0  0  0  0
  1  2  2  0
  2  3  1  0
  3  4  1  0
  4  5  1  0
  5  6  2  0
  5  7  1  0
  7  8  1  0
  8  9  2  0
  9 10  1  0
 10 11  2  0
 11 12  1  0
 12 13  2  0
 12 14  2  0
 12 15  1  0
 15 16  1  0
 16 17  1  0
 17 18  1  0
 18 19  1  0
 19 20  1  0
 20 21  1  0
 11 22  1  0
 22 23  2  0
  7  2  1  0
 23  8  1  0
 21 17  1  0
  3 24  1  0
  3 25  1  0
  4 26  1  0
  4 27  1  0
  9 28  1  0
 10 29  1  0
 15 30  1  0
 16 31  1  0
 16 32  1  0
 17 33  1  1
 18 34  1  0
 18 35  1  0
 19 36  1  0
 19 37  1  0
 21 38  1  0
 21 39  1  0
 22 40  1  0
M  END
>  <meeko>  (2) 
{"is_sidechain": [false], "free_energy": -8.157, "intermolecular_energy": -10.929, "internal_energy": -0.535}

$$$$
ligand_64_conformer_5_docked
     RDKit          3D

 40 42  0  0  0  0  0  0  0  0999 V2000
    7.9890   47.4510   54.9660 O   0  0  0  0  0  0  0  0  0  0  0  0
    8.4420   47.0220   53.8710 C   0  0  0  0  0  0  0  0  0  0  0  0
    9.8580   47.2090   53.4410 C   0  0  0  0  0  0  0  0  0  0  0  0
    9.8930   46.6360   52.0110 C   0  0  0  0  0  0  0  0  0  0  0  0
    8.4980   46.1590   51.7830 C   0  0  0  0  0  0  0  0  0  0  0  0
    8.1190   45.6070   50.7150 O   0  0  0  0  0  0  0  0  0  0  0  0
    7.6420   46.3690   52.8950 N   0  0  0  0  0  0  0  0  0  0  0  0
    6.2300   46.0920   52.9470 C   0  0  0  0  0  0  0  0  0  0  0  0
    5.2820   47.0990   52.7050 C   0  0  0  0  0  0  0  0  0  0  0  0
    3.9210   46.7940   52.7740 C   0  0  0  0  0  0  0  0  0  0  0  0
    3.5110   45.4960   53.0910 C   0  0  0  0  0  0  0  0  0  0  0  0
    1.8010   45.0880   53.1930 S   0  0  0  0  0  0  0  0  0  0  0  0
    1.0700   45.6150   51.9880 O   0  0  0  0  0  0  0  0  0  0  0  0
    1.6580   43.5930   53.2390 O   0  0  0  0  0  0  0  0  0  0  0  0
    1.1140   45.7760   54.6330 N   0  0  0  0  0  0  0  0  0  0  0  0
    1.4680   44.9560   55.7950 C   0  0  0  0  0  0  0  0  0  0  0  0
    0.4870   45.2250   56.9460 C   0  0  2  0  0  0  0  0  0  0  0  0
   -0.8710   45.6560   56.4680 C   0  0  0  0  0  0  0  0  0  0  0  0
   -1.3580   46.5400   57.5990 C   0  0  0  0  0  0  0  0  0  0  0  0
   -0.2570   47.0030   58.3490 O   0  0  0  0  0  0  0  0  0  0  0  0
    0.9020   46.3890   57.8320 C   0  0  0  0  0  0  0  0  0  0  0  0
    4.4830   44.5190   53.3320 C   0  0  0  0  0  0  0  0  0  0  0  0
    5.8020   44.8380   53.2590 N   0  0  0  0  0  0  0  0  0  0  0  0
   10.1291   48.2751   53.4416 H   0  0  0  0  0  0  0  0  0  0  0  0
   10.5733   46.7126   54.1133 H   0  0  0  0  0  0  0  0  0  0  0  0
   10.1643   47.4151   51.2834 H   0  0  0  0  0  0  0  0  0  0  0  0
   10.6399   45.8374   51.8915 H   0  0  0  0  0  0  0  0  0  0  0  0
    5.6090   48.1209   52.4628 H   0  0  0  0  0  0  0  0  0  0  0  0
    3.1717   47.5753   52.5789 H   0  0  0  0  0  0  0  0  0  0  0  0
    1.5450   46.7210   54.7570 H   0  0  0  0  0  0  0  0  0  0  0  0
    1.4218   43.8924   55.5180 H   0  0  0  0  0  0  0  0  0  0  0  0
    2.4867   45.2126   56.1213 H   0  0  0  0  0  0  0  0  0  0  0  0
    0.4783   44.2622   57.4780 H   0  0  0  0  0  0  0  0  0  0  0  0
   -0.7994   46.2202   55.5264 H   0  0  0  0  0  0  0  0  0  0  0  0
   -1.5448   44.8139   56.2514 H   0  0  0  0  0  0  0  0  0  0  0  0
   -1.9037   47.3994   57.1823 H   0  0  0  0  0  0  0  0  0  0  0  0
   -2.0258   45.9598   58.2528 H   0  0  0  0  0  0  0  0  0  0  0  0
    1.4739   47.1186   57.2399 H   0  0  0  0  0  0  0  0  0  0  0  0
    1.5312   46.0243   58.6573 H   0  0  0  0  0  0  0  0  0  0  0  0
    4.1792   43.4915   53.5809 H   0  0  0  0  0  0  0  0  0  0  0  0
  1  2  2  0
  2  3  1  0
  3  4  1  0
  4  5  1  0
  5  6  2  0
  5  7  1  0
  7  8  1  0
  8  9  2  0
  9 10  1  0
 10 11  2  0
 11 12  1  0
 12 13  2  0
 12 14  2  0
 12 15  1  0
 15 16  1  0
 16 17  1  0
 17 18  1  0
 18 19  1  0
 19 20  1  0
 20 21  1  0
 11 22  1  0
 22 23  2  0
  7  2  1  0
 23  8  1  0
 21 17  1  0
  3 24  1  0
  3 25  1  0
  4 26  1  0
  4 27  1  0
  9 28  1  0
 10 29  1  0
 15 30  1  0
 16 31  1  0
 16 32  1  0
 17 33  1  1
 18 34  1  0
 18 35  1  0
 19 36  1  0
 19 37  1  0
 21 38  1  0
 21 39  1  0
 22 40  1  0
M  END
>  <meeko>  (3) 
{"is_sidechain": [false], "free_energy": -8.101, "intermolecular_energy": -10.735, "internal_energy": -0.656}

$$$$
ligand_64_conformer_5_docked
     RDKit          3D

 40 42  0  0  0  0  0  0  0  0999 V2000
    7.9870   45.6060   50.8630 O   0  0  0  0  0  0  0  0  0  0  0  0
    8.4730   46.2380   51.8390 C   0  0  0  0  0  0  0  0  0  0  0  0
    9.8950   46.6870   51.8960 C   0  0  0  0  0  0  0  0  0  0  0  0
   10.0380   47.2870   53.3080 C   0  0  0  0  0  0  0  0  0  0  0  0
    8.6770   47.1410   53.9000 C   0  0  0  0  0  0  0  0  0  0  0  0
    8.3800   47.5310   55.0610 O   0  0  0  0  0  0  0  0  0  0  0  0
    7.7430   46.5360   53.0200 N   0  0  0  0  0  0  0  0  0  0  0  0
    6.3810   46.1880   53.3330 C   0  0  0  0  0  0  0  0  0  0  0  0
    6.0690   44.9870   53.9880 C   0  0  0  0  0  0  0  0  0  0  0  0
    4.7360   44.6790   54.2660 C   0  0  0  0  0  0  0  0  0  0  0  0
    3.7210   45.5610   53.8830 C   0  0  0  0  0  0  0  0  0  0  0  0
    2.0310   45.1920   54.2130 S   0  0  0  0  0  0  0  0  0  0  0  0
    1.6620   45.6500   55.5980 O   0  0  0  0  0  0  0  0  0  0  0  0
    1.1710   45.9090   53.2120 O   0  0  0  0  0  0  0  0  0  0  0  0
    1.7630   43.4800   54.0800 N   0  0  0  0  0  0  0  0  0  0  0  0
    1.7170   43.0910   52.6680 C   0  0  0  0  0  0  0  0  0  0  0  0
    0.3310   42.5240   52.3250 C   0  0  2  0  0  0  0  0  0  0  0  0
   -0.3070   43.2110   51.1510 C   0  0  0  0  0  0  0  0  0  0  0  0
   -1.7880   43.0850   51.4550 C   0  0  0  0  0  0  0  0  0  0  0  0
   -1.9720   42.8660   52.8370 O   0  0  0  0  0  0  0  0  0  0  0  0
   -0.6970   42.7410   53.4240 C   0  0  0  0  0  0  0  0  0  0  0  0
    4.0670   46.7460   53.2250 C   0  0  0  0  0  0  0  0  0  0  0  0
    5.3720   47.0260   52.9660 N   0  0  0  0  0  0  0  0  0  0  0  0
   10.5796   45.8367   51.7610 H   0  0  0  0  0  0  0  0  0  0  0  0
   10.1448   47.4063   51.1022 H   0  0  0  0  0  0  0  0  0  0  0  0
   10.7823   46.7302   53.8962 H   0  0  0  0  0  0  0  0  0  0  0  0
   10.3835   48.3312   53.2919 H   0  0  0  0  0  0  0  0  0  0  0  0
    6.8700   44.2922   54.2807 H   0  0  0  0  0  0  0  0  0  0  0  0
    4.4844   43.7429   54.7861 H   0  0  0  0  0  0  0  0  0  0  0  0
    2.5840   43.0060   54.5220 H   0  0  0  0  0  0  0  0  0  0  0  0
    1.9157   43.9724   52.0405 H   0  0  0  0  0  0  0  0  0  0  0  0
    2.4793   42.3205   52.4803 H   0  0  0  0  0  0  0  0  0  0  0  0
    0.5488   41.4610   52.1443 H   0  0  0  0  0  0  0  0  0  0  0  0
   -0.0019   44.2664   51.0952 H   0  0  0  0  0  0  0  0  0  0  0  0
   -0.0217   42.7749   50.1823 H   0  0  0  0  0  0  0  0  0  0  0  0
   -2.3022   44.0115   51.1598 H   0  0  0  0  0  0  0  0  0  0  0  0
   -2.2049   42.2365   50.8926 H   0  0  0  0  0  0  0  0  0  0  0  0
   -0.4549   43.6585   53.9804 H   0  0  0  0  0  0  0  0  0  0  0  0
   -0.6876   41.8872   54.1175 H   0  0  0  0  0  0  0  0  0  0  0  0
    3.2821   47.4523   52.9167 H   0  0  0  0  0  0  0  0  0  0  0  0
  1  2  2  0
  2  3  1  0
  3  4  1  0
  4  5  1  0
  5  6  2  0
  5  7  1  0
  7  8  1  0
  8  9  2  0
  9 10  1  0
 10 11  2  0
 11 12  1  0
 12 13  2  0
 12 14  2  0
 12 15  1  0
 15 16  1  0
 16 17  1  0
 17 18  1  0
 18 19  1  0
 19 20  1  0
 20 21  1  0
 11 22  1  0
 22 23  2  0
  7  2  1  0
 23  8  1  0
 21 17  1  0
  3 24  1  0
  3 25  1  0
  4 26  1  0
  4 27  1  0
  9 28  1  0
 10 29  1  0
 15 30  1  0
 16 31  1  0
 16 32  1  0
 17 33  1  6
 18 34  1  0
 18 35  1  0
 19 36  1  0
 19 37  1  0
 21 38  1  0
 21 39  1  0
 22 40  1  0
M  END
>  <meeko>  (4) 
{"is_sidechain": [false], "free_energy": -7.723, "intermolecular_energy": -10.171, "internal_energy": -0.732}

$$$$
ligand_64_conformer_5_docked
     RDKit          3D

 40 42  0  0  0  0  0  0  0  0999 V2000
    1.7730   45.6240   55.8540 O   0  0  0  0  0  0  0  0  0  0  0  0
    1.5990   44.8090   54.9090 C   0  0  0  0  0  0  0  0  0  0  0  0
    0.3970   43.9320   54.7960 C   0  0  0  0  0  0  0  0  0  0  0  0
    0.6990   43.0440   53.5730 C   0  0  0  0  0  0  0  0  0  0  0  0
    2.0300   43.5230   53.1010 C   0  0  0  0  0  0  0  0  0  0  0  0
    2.6240   43.0460   52.0970 O   0  0  0  0  0  0  0  0  0  0  0  0
    2.5550   44.5850   53.8820 N   0  0  0  0  0  0  0  0  0  0  0  0
    3.8480   45.1980   53.7260 C   0  0  0  0  0  0  0  0  0  0  0  0
    4.9990   44.6200   54.2820 C   0  0  0  0  0  0  0  0  0  0  0  0
    6.2350   45.2490   54.1180 C   0  0  0  0  0  0  0  0  0  0  0  0
    6.3180   46.4520   53.4100 C   0  0  0  0  0  0  0  0  0  0  0  0
    7.8630   47.2700   53.1960 S   0  0  0  0  0  0  0  0  0  0  0  0
    7.6400   48.6830   52.7290 O   0  0  0  0  0  0  0  0  0  0  0  0
    8.5870   47.2960   54.5120 O   0  0  0  0  0  0  0  0  0  0  0  0
    8.8250   46.4190   52.0250 N   0  0  0  0  0  0  0  0  0  0  0  0
    8.0580   46.2330   50.7900 C   0  0  0  0  0  0  0  0  0  0  0  0
    7.7550   44.7420   50.5810 C   0  0  2  0  0  0  0  0  0  0  0  0
    8.3040   44.2090   49.2880 C   0  0  0  0  0  0  0  0  0  0  0  0
    7.3260   43.1030   48.9400 C   0  0  0  0  0  0  0  0  0  0  0  0
    6.1040   43.3220   49.6100 O   0  0  0  0  0  0  0  0  0  0  0  0
    6.2700   44.4420   50.4480 C   0  0  0  0  0  0  0  0  0  0  0  0
    5.1490   47.0030   52.8740 C   0  0  0  0  0  0  0  0  0  0  0  0
    3.9570   46.3730   53.0460 N   0  0  0  0  0  0  0  0  0  0  0  0
    0.2720   43.3208   55.7020 H   0  0  0  0  0  0  0  0  0  0  0  0
   -0.5361   44.5038   54.6848 H   0  0  0  0  0  0  0  0  0  0  0  0
    0.7446   41.9834   53.8613 H   0  0  0  0  0  0  0  0  0  0  0  0
   -0.0767   43.1142   52.7962 H   0  0  0  0  0  0  0  0  0  0  0  0
    4.9284   43.6769   54.8438 H   0  0  0  0  0  0  0  0  0  0  0  0
    7.1428   44.7984   54.5455 H   0  0  0  0  0  0  0  0  0  0  0  0
    9.6500   47.0240   51.8090 H   0  0  0  0  0  0  0  0  0  0  0  0
    7.1125   46.7907   50.8606 H   0  0  0  0  0  0  0  0  0  0  0  0
    8.6472   46.6051   49.9389 H   0  0  0  0  0  0  0  0  0  0  0  0
    8.2088   44.2826   51.4715 H   0  0  0  0  0  0  0  0  0  0  0  0
    8.3149   44.9876   48.5110 H   0  0  0  0  0  0  0  0  0  0  0  0
    9.3449   43.8620   49.3662 H   0  0  0  0  0  0  0  0  0  0  0  0
    7.1518   43.0971   47.8539 H   0  0  0  0  0  0  0  0  0  0  0  0
    7.7445   42.1347   49.2518 H   0  0  0  0  0  0  0  0  0  0  0  0
    5.7557   45.3102   50.0102 H   0  0  0  0  0  0  0  0  0  0  0  0
    5.8419   44.2324   51.4394 H   0  0  0  0  0  0  0  0  0  0  0  0
    5.1947   47.9477   52.3124 H   0  0  0  0  0  0  0  0  0  0  0  0
  1  2  2  0
  2  3  1  0
  3  4  1  0
  4  5  1  0
  5  6  2  0
  5  7  1  0
  7  8  1  0
  8  9  2  0
  9 10  1  0
 10 11  2  0
 11 12  1  0
 12 13  2  0
 12 14  2  0
 12 15  1  0
 15 16  1  0
 16 17  1  0
 17 18  1  0
 18 19  1  0
 19 20  1  0
 20 21  1  0
 11 22  1  0
 22 23  2  0
  7  2  1  0
 23  8  1  0
 21 17  1  0
  3 24  1  0
  3 25  1  0
  4 26  1  0
  4 27  1  0
  9 28  1  0
 10 29  1  0
 15 30  1  0
 16 31  1  0
 16 32  1  0
 17 33  1  1
 18 34  1  0
 18 35  1  0
 19 36  1  0
 19 37  1  0
 21 38  1  0
 21 39  1  0
 22 40  1  0
M  END
>  <meeko>  (5) 
{"is_sidechain": [false], "free_energy": -7.361, "intermolecular_energy": -9.486, "internal_energy": -0.949}

$$$$
