ligand_90_conformer_3_docked
     RDKit          3D

 47 49  0  0  0  0  0  0  0  0999 V2000
    3.8030   42.1880   50.8830 C   0  0  0  0  0  0  0  0  0  0  0  0
    2.8530   43.1740   51.4310 N   0  0  0  0  0  0  0  0  0  0  0  0
    1.5830   43.0750   50.6920 C   0  0  0  0  0  0  0  0  0  0  0  0
    2.6150   42.9530   52.8760 C   0  0  0  0  0  0  0  0  0  0  0  0
    2.7760   44.2530   53.7210 C   0  0  2  0  0  0  0  0  0  0  0  0
    1.5780   44.5770   54.6070 C   0  0  0  0  0  0  0  0  0  0  0  0
    0.3070   44.1350   54.1920 C   0  0  0  0  0  0  0  0  0  0  0  0
   -0.8270   44.3840   54.9690 C   0  0  0  0  0  0  0  0  0  0  0  0
   -0.7120   45.0820   56.1710 C   0  0  0  0  0  0  0  0  0  0  0  0
    0.5360   45.5410   56.5940 C   0  0  0  0  0  0  0  0  0  0  0  0
    1.6750   45.2950   55.8200 C   0  0  0  0  0  0  0  0  0  0  0  0
    3.1640   45.4680   52.9500 N   0  0  0  0  0  0  0  0  0  0  0  0
    2.0480   46.3930   52.7020 C   0  0  0  0  0  0  0  0  0  0  0  0
    4.5630   46.3490   53.5330 S   0  0  0  0  0  0  0  0  0  0  0  0
    4.9000   45.9270   54.9360 O   0  0  0  0  0  0  0  0  0  0  0  0
    4.2470   47.8180   53.5550 O   0  0  0  0  0  0  0  0  0  0  0  0
    5.9640   46.1170   52.4890 C   0  0  0  0  0  0  0  0  0  0  0  0
    5.8730   45.5510   51.2160 C   0  0  0  0  0  0  0  0  0  0  0  0
    7.4140   45.5020   50.5240 S   0  0  0  0  0  0  0  0  0  0  0  0
    8.2000   46.1890   51.8370 C   0  0  0  0  0  0  0  0  0  0  0  0
    9.5540   46.4860   51.9670 C   0  0  0  0  0  0  0  0  0  0  0  0
    9.9890   47.0820   53.1590 C   0  0  0  0  0  0  0  0  0  0  0  0
    9.0720   47.3670   54.1890 C   0  0  0  0  0  0  0  0  0  0  0  0
    7.7100   47.0590   54.0330 C   0  0  0  0  0  0  0  0  0  0  0  0
    7.2800   46.4670   52.8380 C   0  0  0  0  0  0  0  0  0  0  0  0
    4.3066   41.6653   51.7096 H   0  0  0  0  0  0  0  0  0  0  0  0
    3.2587   41.4584   50.2653 H   0  0  0  0  0  0  0  0  0  0  0  0
    4.5523   42.7048   50.2653 H   0  0  0  0  0  0  0  0  0  0  0  0
    0.7480   43.0099   51.4051 H   0  0  0  0  0  0  0  0  0  0  0  0
    1.4564   43.9660   50.0595 H   0  0  0  0  0  0  0  0  0  0  0  0
    1.5960   42.1751   50.0595 H   0  0  0  0  0  0  0  0  0  0  0  0
    1.5918   42.5718   53.0093 H   0  0  0  0  0  0  0  0  0  0  0  0
    3.3682   42.2333   53.2292 H   0  0  0  0  0  0  0  0  0  0  0  0
    3.6262   43.9910   54.3680 H   0  0  0  0  0  0  0  0  0  0  0  0
    0.2058   43.5866   53.2438 H   0  0  0  0  0  0  0  0  0  0  0  0
   -1.8122   44.0290   54.6323 H   0  0  0  0  0  0  0  0  0  0  0  0
   -1.6048   45.2706   56.7853 H   0  0  0  0  0  0  0  0  0  0  0  0
    0.6244   46.0977   57.5386 H   0  0  0  0  0  0  0  0  0  0  0  0
    2.6545   45.6637   56.1586 H   0  0  0  0  0  0  0  0  0  0  0  0
    1.6351   46.7352   53.6624 H   0  0  0  0  0  0  0  0  0  0  0  0
    2.4102   47.2593   52.1290 H   0  0  0  0  0  0  0  0  0  0  0  0
    1.2639   45.8763   52.1290 H   0  0  0  0  0  0  0  0  0  0  0  0
    4.9475   45.1945   50.7402 H   0  0  0  0  0  0  0  0  0  0  0  0
   10.2628   46.2593   51.1569 H   0  0  0  0  0  0  0  0  0  0  0  0
   11.0529   47.3285   53.2905 H   0  0  0  0  0  0  0  0  0  0  0  0
    9.4240   47.8334   55.1210 H   0  0  0  0  0  0  0  0  0  0  0  0
    6.9921   47.2793   54.8368 H   0  0  0  0  0  0  0  0  0  0  0  0
  1  2  1  0
  2  3  1  0
  2  4  1  0
  4  5  1  0
  5  6  1  0
  6  7  2  0
  7  8  1  0
  8  9  2  0
  9 10  1  0
 10 11  2  0
  5 12  1  0
 12 13  1  0
 12 14  1  0
 14 15  2  0
 14 16  2  0
 14 17  1  0
 17 18  2  0
 18 19  1  0
 19 20  1  0
 20 21  2  0
 21 22  1  0
 22 23  2  0
 23 24  1  0
 24 25  2  0
 11  6  1  0
 25 17  1  0
 25 20  1  0
  1 26  1  0
  1 27  1  0
  1 28  1  0
  3 29  1  0
  3 30  1  0
  3 31  1  0
  4 32  1  0
  4 33  1  0
  5 34  1  1
  7 35  1  0
  8 36  1  0
  9 37  1  0
 10 38  1  0
 11 39  1  0
 13 40  1  0
 13 41  1  0
 13 42  1  0
 18 43  1  0
 21 44  1  0
 22 45  1  0
 23 46  1  0
 24 47  1  0
M  END
>  <meeko>  (1) 
{"is_sidechain": [false], "free_energy": -8.431, "intermolecular_energy": -11.388, "internal_energy": -0.394}

$$$$
ligand_90_conformer_3_docked
     RDKit          3D

 47 49  0  0  0  0  0  0  0  0999 V2000
   -0.5190   44.5430   54.9920 C   0  0  0  0  0  0  0  0  0  0  0  0
    0.6050   45.3270   55.5380 N   0  0  0  0  0  0  0  0  0  0  0  0
    0.4040   45.5090   56.9850 C   0  0  0  0  0  0  0  0  0  0  0  0
    1.9030   44.6600   55.2880 C   0  0  0  0  0  0  0  0  0  0  0  0
    2.6200   45.1910   54.0100 C   0  0  2  0  0  0  0  0  0  0  0  0
    2.7320   44.1680   52.8840 C   0  0  0  0  0  0  0  0  0  0  0  0
    1.6920   44.1070   51.9370 C   0  0  0  0  0  0  0  0  0  0  0  0
    1.7450   43.2040   50.8720 C   0  0  0  0  0  0  0  0  0  0  0  0
    2.8350   42.3460   50.7370 C   0  0  0  0  0  0  0  0  0  0  0  0
    3.8710   42.3800   51.6710 C   0  0  0  0  0  0  0  0  0  0  0  0
    3.8230   43.2810   52.7400 C   0  0  0  0  0  0  0  0  0  0  0  0
    3.9530   45.8170   54.2420 N   0  0  0  0  0  0  0  0  0  0  0  0
    5.0270   44.8470   54.4960 C   0  0  0  0  0  0  0  0  0  0  0  0
    4.4730   47.0050   53.0630 S   0  0  0  0  0  0  0  0  0  0  0  0
    4.7710   48.3160   53.7370 O   0  0  0  0  0  0  0  0  0  0  0  0
    3.3650   47.2350   52.0730 O   0  0  0  0  0  0  0  0  0  0  0  0
    5.8900   46.4620   52.1670 C   0  0  0  0  0  0  0  0  0  0  0  0
    5.8000   45.7590   50.9640 C   0  0  0  0  0  0  0  0  0  0  0  0
    7.3590   45.4220   50.4060 S   0  0  0  0  0  0  0  0  0  0  0  0
    8.1500   46.1550   51.6910 C   0  0  0  0  0  0  0  0  0  0  0  0
    9.5220   46.2840   51.8940 C   0  0  0  0  0  0  0  0  0  0  0  0
    9.9610   46.9600   53.0400 C   0  0  0  0  0  0  0  0  0  0  0  0
    9.0300   47.4890   53.9550 C   0  0  0  0  0  0  0  0  0  0  0  0
    7.6510   47.3480   53.7280 C   0  0  0  0  0  0  0  0  0  0  0  0
    7.2180   46.6750   52.5780 C   0  0  0  0  0  0  0  0  0  0  0  0
   -1.1132   44.1285   55.8197 H   0  0  0  0  0  0  0  0  0  0  0  0
   -1.1548   45.1946   54.3746 H   0  0  0  0  0  0  0  0  0  0  0  0
   -0.1271   43.7213   54.3746 H   0  0  0  0  0  0  0  0  0  0  0  0
    1.1096   44.8701   57.5364 H   0  0  0  0  0  0  0  0  0  0  0  0
    0.5790   46.5622   57.2499 H   0  0  0  0  0  0  0  0  0  0  0  0
   -0.6267   45.2306   57.2499 H   0  0  0  0  0  0  0  0  0  0  0  0
    2.5583   44.8306   56.1549 H   0  0  0  0  0  0  0  0  0  0  0  0
    1.7005   43.5900   55.1331 H   0  0  0  0  0  0  0  0  0  0  0  0
    1.9347   45.9895   53.6894 H   0  0  0  0  0  0  0  0  0  0  0  0
    0.8267   44.7788   52.0368 H   0  0  0  0  0  0  0  0  0  0  0  0
    0.9254   43.1703   50.1392 H   0  0  0  0  0  0  0  0  0  0  0  0
    2.8786   41.6414   49.8934 H   0  0  0  0  0  0  0  0  0  0  0  0
    4.7270   41.6971   51.5666 H   0  0  0  0  0  0  0  0  0  0  0  0
    4.6413   43.2993   53.4748 H   0  0  0  0  0  0  0  0  0  0  0  0
    5.1620   44.7251   55.5809 H   0  0  0  0  0  0  0  0  0  0  0  0
    4.7595   43.8783   54.0486 H   0  0  0  0  0  0  0  0  0  0  0  0
    5.9635   45.2114   54.0486 H   0  0  0  0  0  0  0  0  0  0  0  0
    4.8652   45.4710   50.4608 H   0  0  0  0  0  0  0  0  0  0  0  0
   10.2413   45.8665   51.1741 H   0  0  0  0  0  0  0  0  0  0  0  0
   11.0387   47.0782   53.2262 H   0  0  0  0  0  0  0  0  0  0  0  0
    9.3850   48.0159   54.8530 H   0  0  0  0  0  0  0  0  0  0  0  0
    6.9224   47.7596   54.4420 H   0  0  0  0  0  0  0  0  0  0  0  0
  1  2  1  0
  2  3  1  0
  2  4  1  0
  4  5  1  0
  5  6  1  0
  6  7  2  0
  7  8  1  0
  8  9  2  0
  9 10  1  0
 10 11  2  0
  5 12  1  0
 12 13  1  0
 12 14  1  0
 14 15  2  0
 14 16  2  0
 14 17  1  0
 17 18  2  0
 18 19  1  0
 19 20  1  0
 20 21  2  0
 21 22  1  0
 22 23  2  0
 23 24  1  0
 24 25  2  0
 11  6  1  0
 25 17  1  0
 25 20  1  0
  1 26  1  0
  1 27  1  0
  1 28  1  0
  3 29  1  0
  3 30  1  0
  3 31  1  0
  4 32  1  0
  4 33  1  0
  5 34  1  6
  7 35  1  0
  8 36  1  0
  9 37  1  0
 10 38  1  0
 11 39  1  0
 13 40  1  0
 13 41  1  0
 13 42  1  0
 18 43  1  0
 21 44  1  0
 22 45  1  0
 23 46  1  0
 24 47  1  0
M  END
>  <meeko>  (2) 
{"is_sidechain": [false], "free_energy": -8.055, "intermolecular_energy": -11.794, "internal_energy": 0.52}

$$$$
ligand_90_conformer_3_docked
     RDKit          3D

 47 49  0  0  0  0  0  0  0  0999 V2000
    4.3420   42.9850   50.9780 C   0  0  0  0  0  0  0  0  0  0  0  0
    5.6440   43.6610   50.8280 N   0  0  0  0  0  0  0  0  0  0  0  0
    6.4150   42.9850   49.7710 C   0  0  0  0  0  0  0  0  0  0  0  0
    5.4770   45.0930   50.4940 C   0  0  0  0  0  0  0  0  0  0  0  0
    5.6760   46.0290   51.7240 C   0  0  2  0  0  0  0  0  0  0  0  0
    7.1270   46.4130   51.9920 C   0  0  0  0  0  0  0  0  0  0  0  0
    7.3790   47.4990   52.8520 C   0  0  0  0  0  0  0  0  0  0  0  0
    8.6880   47.8880   53.1510 C   0  0  0  0  0  0  0  0  0  0  0  0
    9.7650   47.2010   52.5940 C   0  0  0  0  0  0  0  0  0  0  0  0
    9.5380   46.1300   51.7290 C   0  0  0  0  0  0  0  0  0  0  0  0
    8.2310   45.7370   51.4250 C   0  0  0  0  0  0  0  0  0  0  0  0
    5.0480   45.5560   52.9910 N   0  0  0  0  0  0  0  0  0  0  0  0
    6.0140   45.0590   53.9800 C   0  0  0  0  0  0  0  0  0  0  0  0
    3.9080   46.6480   53.7520 S   0  0  0  0  0  0  0  0  0  0  0  0
    3.5000   47.7310   52.7930 O   0  0  0  0  0  0  0  0  0  0  0  0
    4.5660   47.3010   54.9350 O   0  0  0  0  0  0  0  0  0  0  0  0
    2.4760   45.7990   54.3340 C   0  0  0  0  0  0  0  0  0  0  0  0
    2.1640   45.6860   55.6900 C   0  0  0  0  0  0  0  0  0  0  0  0
    0.7240   44.8170   55.8510 S   0  0  0  0  0  0  0  0  0  0  0  0
    0.4980   44.5760   54.2070 C   0  0  0  0  0  0  0  0  0  0  0  0
   -0.5540   43.9210   53.5720 C   0  0  0  0  0  0  0  0  0  0  0  0
   -0.5460   43.8570   52.1710 C   0  0  0  0  0  0  0  0  0  0  0  0
    0.5050   44.4430   51.4390 C   0  0  0  0  0  0  0  0  0  0  0  0
    1.5540   45.1000   52.1020 C   0  0  0  0  0  0  0  0  0  0  0  0
    1.5380   45.1650   53.5020 C   0  0  0  0  0  0  0  0  0  0  0  0
    4.1119   42.8655   52.0470 H   0  0  0  0  0  0  0  0  0  0  0  0
    3.5576   43.5897   50.4994 H   0  0  0  0  0  0  0  0  0  0  0  0
    4.3853   41.9955   50.4994 H   0  0  0  0  0  0  0  0  0  0  0  0
    7.1667   42.3259   50.2299 H   0  0  0  0  0  0  0  0  0  0  0  0
    5.7350   42.3867   49.1468 H   0  0  0  0  0  0  0  0  0  0  0  0
    6.9192   43.7374   49.1468 H   0  0  0  0  0  0  0  0  0  0  0  0
    6.2154   45.3625   49.7245 H   0  0  0  0  0  0  0  0  0  0  0  0
    4.4457   45.2310   50.1372 H   0  0  0  0  0  0  0  0  0  0  0  0
    5.1312   46.9297   51.4046 H   0  0  0  0  0  0  0  0  0  0  0  0
    6.5349   48.0484   53.2943 H   0  0  0  0  0  0  0  0  0  0  0  0
    8.8681   48.7372   53.8266 H   0  0  0  0  0  0  0  0  0  0  0  0
   10.7945   47.5032   52.8364 H   0  0  0  0  0  0  0  0  0  0  0  0
   10.3895   45.5934   51.2851 H   0  0  0  0  0  0  0  0  0  0  0  0
    8.0606   44.8945   50.7386 H   0  0  0  0  0  0  0  0  0  0  0  0
    5.6343   45.2544   54.9937 H   0  0  0  0  0  0  0  0  0  0  0  0
    6.1546   43.9766   53.8434 H   0  0  0  0  0  0  0  0  0  0  0  0
    6.9764   45.5739   53.8434 H   0  0  0  0  0  0  0  0  0  0  0  0
    2.7591   46.0962   56.5192 H   0  0  0  0  0  0  0  0  0  0  0  0
   -1.3694   43.4660   54.1535 H   0  0  0  0  0  0  0  0  0  0  0  0
   -1.3642   43.3469   51.6415 H   0  0  0  0  0  0  0  0  0  0  0  0
    0.5040   44.3856   50.3405 H   0  0  0  0  0  0  0  0  0  0  0  0
    2.3759   45.5568   51.5313 H   0  0  0  0  0  0  0  0  0  0  0  0
  1  2  1  0
  2  3  1  0
  2  4  1  0
  4  5  1  0
  5  6  1  0
  6  7  2  0
  7  8  1  0
  8  9  2  0
  9 10  1  0
 10 11  2  0
  5 12  1  0
 12 13  1  0
 12 14  1  0
 14 15  2  0
 14 16  2  0
 14 17  1  0
 17 18  2  0
 18 19  1  0
 19 20  1  0
 20 21  2  0
 21 22  1  0
 22 23  2  0
 23 24  1  0
 24 25  2  0
 11  6  1  0
 25 17  1  0
 25 20  1  0
  1 26  1  0
  1 27  1  0
  1 28  1  0
  3 29  1  0
  3 30  1  0
  3 31  1  0
  4 32  1  0
  4 33  1  0
  5 34  1  6
  7 35  1  0
  8 36  1  0
  9 37  1  0
 10 38  1  0
 11 39  1  0
 13 40  1  0
 13 41  1  0
 13 42  1  0
 18 43  1  0
 21 44  1  0
 22 45  1  0
 23 46  1  0
 24 47  1  0
M  END
>  <meeko>  (3) 
{"is_sidechain": [false], "free_energy": -7.805, "intermolecular_energy": -10.81, "internal_energy": -0.127}

$$$$
ligand_90_conformer_3_docked
     RDKit          3D

 47 49  0  0  0  0  0  0  0  0999 V2000
    8.2170   47.1550   54.0500 C   0  0  0  0  0  0  0  0  0  0  0  0
    7.6600   47.8730   52.8880 N   0  0  0  0  0  0  0  0  0  0  0  0
    8.6930   47.9620   51.8420 C   0  0  0  0  0  0  0  0  0  0  0  0
    6.4590   47.1910   52.3540 C   0  0  0  0  0  0  0  0  0  0  0  0
    6.4500   45.6610   52.6480 C   0  0  2  0  0  0  0  0  0  0  0  0
    6.5890   44.7840   51.4090 C   0  0  0  0  0  0  0  0  0  0  0  0
    5.6150   43.7910   51.1840 C   0  0  0  0  0  0  0  0  0  0  0  0
    5.6760   42.9690   50.0570 C   0  0  0  0  0  0  0  0  0  0  0  0
    6.7130   43.1200   49.1370 C   0  0  0  0  0  0  0  0  0  0  0  0
    7.6960   44.0870   49.3460 C   0  0  0  0  0  0  0  0  0  0  0  0
    7.6410   44.9140   50.4730 C   0  0  0  0  0  0  0  0  0  0  0  0
    5.3030   45.1780   53.4690 N   0  0  0  0  0  0  0  0  0  0  0  0
    5.6970   44.6450   54.7810 C   0  0  0  0  0  0  0  0  0  0  0  0
    3.9500   46.2780   53.6420 S   0  0  0  0  0  0  0  0  0  0  0  0
    3.6210   46.9150   52.3210 O   0  0  0  0  0  0  0  0  0  0  0  0
    4.3240   47.3720   54.6030 O   0  0  0  0  0  0  0  0  0  0  0  0
    2.5230   45.4650   54.2830 C   0  0  0  0  0  0  0  0  0  0  0  0
    1.9650   45.7820   55.5220 C   0  0  0  0  0  0  0  0  0  0  0  0
    0.6130   44.8040   55.7840 S   0  0  0  0  0  0  0  0  0  0  0  0
    0.7360   43.9710   54.3330 C   0  0  0  0  0  0  0  0  0  0  0  0
   -0.1030   42.9740   53.8420 C   0  0  0  0  0  0  0  0  0  0  0  0
    0.1850   42.4280   52.5820 C   0  0  0  0  0  0  0  0  0  0  0  0
    1.2950   42.8840   51.8460 C   0  0  0  0  0  0  0  0  0  0  0  0
    2.1260   43.8920   52.3620 C   0  0  0  0  0  0  0  0  0  0  0  0
    1.8310   44.4370   53.6190 C   0  0  0  0  0  0  0  0  0  0  0  0
    7.8547   47.6220   54.9777 H   0  0  0  0  0  0  0  0  0  0  0  0
    7.8962   46.1033   54.0194 H   0  0  0  0  0  0  0  0  0  0  0  0
    9.3155   47.2043   54.0194 H   0  0  0  0  0  0  0  0  0  0  0  0
    9.6840   48.0474   52.3117 H   0  0  0  0  0  0  0  0  0  0  0  0
    8.6604   47.0577   51.2165 H   0  0  0  0  0  0  0  0  0  0  0  0
    8.5062   48.8474   51.2165 H   0  0  0  0  0  0  0  0  0  0  0  0
    5.5664   47.6418   52.8123 H   0  0  0  0  0  0  0  0  0  0  0  0
    6.4660   47.3173   51.2613 H   0  0  0  0  0  0  0  0  0  0  0  0
    7.3589   45.5492   53.2575 H   0  0  0  0  0  0  0  0  0  0  0  0
    4.7953   43.6616   51.9061 H   0  0  0  0  0  0  0  0  0  0  0  0
    4.9051   42.2013   49.8946 H   0  0  0  0  0  0  0  0  0  0  0  0
    6.7557   42.4762   48.2461 H   0  0  0  0  0  0  0  0  0  0  0  0
    8.5169   44.1998   48.6226 H   0  0  0  0  0  0  0  0  0  0  0  0
    8.4225   45.6716   50.6324 H   0  0  0  0  0  0  0  0  0  0  0  0
    5.2450   45.2564   55.5759 H   0  0  0  0  0  0  0  0  0  0  0  0
    5.3482   43.6060   54.8745 H   0  0  0  0  0  0  0  0  0  0  0  0
    6.7926   44.6737   54.8745 H   0  0  0  0  0  0  0  0  0  0  0  0
    2.3446   46.5460   56.2165 H   0  0  0  0  0  0  0  0  0  0  0  0
   -0.9673   42.6243   54.4256 H   0  0  0  0  0  0  0  0  0  0  0  0
   -0.4600   41.6394   52.1671 H   0  0  0  0  0  0  0  0  0  0  0  0
    1.5131   42.4479   50.8600 H   0  0  0  0  0  0  0  0  0  0  0  0
    2.9946   44.2480   51.7886 H   0  0  0  0  0  0  0  0  0  0  0  0
  1  2  1  0
  2  3  1  0
  2  4  1  0
  4  5  1  0
  5  6  1  0
  6  7  2  0
  7  8  1  0
  8  9  2  0
  9 10  1  0
 10 11  2  0
  5 12  1  0
 12 13  1  0
 12 14  1  0
 14 15  2  0
 14 16  2  0
 14 17  1  0
 17 18  2  0
 18 19  1  0
 19 20  1  0
 20 21  2  0
 21 22  1  0
 22 23  2  0
 23 24  1  0
 24 25  2  0
 11  6  1  0
 25 17  1  0
 25 20  1  0
  1 26  1  0
  1 27  1  0
  1 28  1  0
  3 29  1  0
  3 30  1  0
  3 31  1  0
  4 32  1  0
  4 33  1  0
  5 34  1  1
  7 35  1  0
  8 36  1  0
  9 37  1  0
 10 38  1  0
 11 39  1  0
 13 40  1  0
 13 41  1  0
 13 42  1  0
 18 43  1  0
 21 44  1  0
 22 45  1  0
 23 46  1  0
 24 47  1  0
M  END
>  <meeko>  (4) 
{"is_sidechain": [false], "free_energy": -7.767, "intermolecular_energy": -10.376, "internal_energy": -0.51}

$$$$
ligand_90_conformer_3_docked
     RDKit          3D

 47 49  0  0  0  0  0  0  0  0999 V2000
    5.6130   45.0760   55.1120 C   0  0  0  0  0  0  0  0  0  0  0  0
    5.7960   46.4620   54.6400 N   0  0  0  0  0  0  0  0  0  0  0  0
    7.2360   46.7760   54.6260 C   0  0  0  0  0  0  0  0  0  0  0  0
    5.2230   46.6560   53.2890 C   0  0  0  0  0  0  0  0  0  0  0  0
    4.7930   45.3170   52.6170 C   0  0  2  0  0  0  0  0  0  0  0  0
    5.7270   44.8450   51.5080 C   0  0  0  0  0  0  0  0  0  0  0  0
    6.7760   45.6980   51.1140 C   0  0  0  0  0  0  0  0  0  0  0  0
    7.6760   45.3150   50.1170 C   0  0  0  0  0  0  0  0  0  0  0  0
    7.5420   44.0750   49.4930 C   0  0  0  0  0  0  0  0  0  0  0  0
    6.5020   43.2200   49.8580 C   0  0  0  0  0  0  0  0  0  0  0  0
    5.5970   43.5970   50.8550 C   0  0  0  0  0  0  0  0  0  0  0  0
    3.3860   45.2740   52.1290 N   0  0  0  0  0  0  0  0  0  0  0  0
    3.2050   45.8540   50.7910 C   0  0  0  0  0  0  0  0  0  0  0  0
    2.5690   43.7270   52.2350 S   0  0  0  0  0  0  0  0  0  0  0  0
    3.4010   42.7490   53.0190 O   0  0  0  0  0  0  0  0  0  0  0  0
    2.3860   43.1710   50.8500 O   0  0  0  0  0  0  0  0  0  0  0  0
    0.9750   43.8760   52.9700 C   0  0  0  0  0  0  0  0  0  0  0  0
   -0.1990   43.5090   52.3100 C   0  0  0  0  0  0  0  0  0  0  0  0
   -1.5150   43.7870   53.3320 S   0  0  0  0  0  0  0  0  0  0  0  0
   -0.6030   44.3800   54.6090 C   0  0  0  0  0  0  0  0  0  0  0  0
   -1.0480   44.8070   55.8570 C   0  0  0  0  0  0  0  0  0  0  0  0
   -0.0950   45.2490   56.7850 C   0  0  0  0  0  0  0  0  0  0  0  0
    1.2730   45.2550   56.4510 C   0  0  0  0  0  0  0  0  0  0  0  0
    1.6990   44.8180   55.1860 C   0  0  0  0  0  0  0  0  0  0  0  0
    0.7410   44.3740   54.2630 C   0  0  0  0  0  0  0  0  0  0  0  0
    5.6110   45.0605   56.2119 H   0  0  0  0  0  0  0  0  0  0  0  0
    4.6554   44.6847   54.7380 H   0  0  0  0  0  0  0  0  0  0  0  0
    6.4362   44.4496   54.7380 H   0  0  0  0  0  0  0  0  0  0  0  0
    7.6039   46.8562   55.6596 H   0  0  0  0  0  0  0  0  0  0  0  0
    7.7808   45.9755   54.1040 H   0  0  0  0  0  0  0  0  0  0  0  0
    7.3981   47.7306   54.1040 H   0  0  0  0  0  0  0  0  0  0  0  0
    4.3402   47.3070   53.3719 H   0  0  0  0  0  0  0  0  0  0  0  0
    6.0046   47.1063   52.6594 H   0  0  0  0  0  0  0  0  0  0  0  0
    4.8686   44.6137   53.4594 H   0  0  0  0  0  0  0  0  0  0  0  0
    6.8881   46.6794   51.5981 H   0  0  0  0  0  0  0  0  0  0  0  0
    8.4916   45.9923   49.8236 H   0  0  0  0  0  0  0  0  0  0  0  0
    8.2561   43.7713   48.7133 H   0  0  0  0  0  0  0  0  0  0  0  0
    6.3934   42.2454   49.3596 H   0  0  0  0  0  0  0  0  0  0  0  0
    4.7777   42.9179   51.1336 H   0  0  0  0  0  0  0  0  0  0  0  0
    2.8785   46.9001   50.8860 H   0  0  0  0  0  0  0  0  0  0  0  0
    4.1579   45.8156   50.2427 H   0  0  0  0  0  0  0  0  0  0  0  0
    2.4431   45.2805   50.2427 H   0  0  0  0  0  0  0  0  0  0  0  0
   -0.2577   43.1040   51.2889 H   0  0  0  0  0  0  0  0  0  0  0  0
   -2.1189   44.7978   56.1082 H   0  0  0  0  0  0  0  0  0  0  0  0
   -0.4173   45.5928   57.7789 H   0  0  0  0  0  0  0  0  0  0  0  0
    2.0131   45.6044   57.1860 H   0  0  0  0  0  0  0  0  0  0  0  0
    2.7672   44.8239   54.9234 H   0  0  0  0  0  0  0  0  0  0  0  0
  1  2  1  0
  2  3  1  0
  2  4  1  0
  4  5  1  0
  5  6  1  0
  6  7  2  0
  7  8  1  0
  8  9  2  0
  9 10  1  0
 10 11  2  0
  5 12  1  0
 12 13  1  0
 12 14  1  0
 14 15  2  0
 14 16  2  0
 14 17  1  0
 17 18  2  0
 18 19  1  0
 19 20  1  0
 20 21  2  0
 21 22  1  0
 22 23  2  0
 23 24  1  0
 24 25  2  0
 11  6  1  0
 25 17  1  0
 25 20  1  0
  1 26  1  0
  1 27  1  0
  1 28  1  0
  3 29  1  0
  3 30  1  0
  3 31  1  0
  4 32  1  0
  4 33  1  0
  5 34  1  1
  7 35  1  0
  8 36  1  0
  9 37  1  0
 10 38  1  0
 11 39  1  0
 13 40  1  0
 13 41  1  0
 13 42  1  0
 18 43  1  0
 21 44  1  0
 22 45  1  0
 23 46  1  0
 24 47  1  0
M  END
>  <meeko>  (5) 
{"is_sidechain": [false], "free_energy": -7.392, "intermolecular_energy": -10.148, "internal_energy": -0.23}

$$$$
