ligand_72_conformer_2_docked
     RDKit          3D

 54 56  0  0  0  0  0  0  0  0999 V2000
   10.7450   47.5720   56.1120 C   0  0  0  0  0  0  0  0  0  0  0  0
   10.6800   47.5310   54.6900 O   0  0  0  0  0  0  0  0  0  0  0  0
    9.5160   47.2590   53.9550 C   0  0  0  0  0  0  0  0  0  0  0  0
    9.5260   47.0890   52.5580 C   0  0  0  0  0  0  0  0  0  0  0  0
    8.3380   46.8190   51.8720 C   0  0  0  0  0  0  0  0  0  0  0  0
    7.1230   46.6970   52.5690 C   0  0  0  0  0  0  0  0  0  0  0  0
    5.8280   46.4070   51.8350 C   0  0  2  0  0  0  0  0  0  0  0  0
    4.8370   45.8200   52.7450 N   0  0  0  0  0  0  0  0  0  0  0  0
    3.5500   46.4140   52.9610 C   0  0  0  0  0  0  0  0  0  0  0  0
    3.2100   47.4450   52.3210 O   0  0  0  0  0  0  0  0  0  0  0  0
    2.5910   45.7910   53.8870 C   0  0  0  0  0  0  0  0  0  0  0  0
    2.6850   46.0870   55.2540 C   0  0  0  0  0  0  0  0  0  0  0  0
    1.7990   45.5040   56.1630 C   0  0  0  0  0  0  0  0  0  0  0  0
    0.8220   44.6130   55.7180 C   0  0  0  0  0  0  0  0  0  0  0  0
    0.7380   44.2870   54.3640 C   0  0  0  0  0  0  0  0  0  0  0  0
    1.6030   44.8830   53.4360 C   0  0  0  0  0  0  0  0  0  0  0  0
    1.4980   44.3810   51.7110 S   0  0  0  0  0  0  0  0  0  0  0  0
    2.0430   42.6600   51.9810 C   0  0  0  0  0  0  0  0  0  0  0  0
    3.5260   42.5330   51.7670 C   0  0  0  0  0  0  0  0  0  0  0  0
    4.3000   43.0470   52.6190 O   0  0  0  0  0  0  0  0  0  0  0  0
    4.0780   41.8420   50.6320 N   0  0  0  0  0  0  0  0  0  0  0  0
    5.5100   41.7440   50.4010 C   0  0  0  0  0  0  0  0  0  0  0  0
    5.6610   41.2480   48.9750 C   0  0  0  0  0  0  0  0  0  0  0  0
    4.3150   40.6330   48.6070 C   0  0  0  0  0  0  0  0  0  0  0  0
    3.2980   41.2560   49.5570 C   0  0  0  0  0  0  0  0  0  0  0  0
    6.0720   45.4900   50.6250 C   0  0  0  0  0  0  0  0  0  0  0  0
    4.8730   45.0500   50.0850 F   0  0  0  0  0  0  0  0  0  0  0  0
    6.8320   44.3950   51.0020 F   0  0  0  0  0  0  0  0  0  0  0  0
    7.1170   46.8800   53.9610 C   0  0  0  0  0  0  0  0  0  0  0  0
    8.3040   47.1570   54.6450 C   0  0  0  0  0  0  0  0  0  0  0  0
    9.8858   47.0301   56.5341 H   0  0  0  0  0  0  0  0  0  0  0  0
   11.6788   47.0992   56.4502 H   0  0  0  0  0  0  0  0  0  0  0  0
   10.7205   48.6184   56.4502 H   0  0  0  0  0  0  0  0  0  0  0  0
   10.4726   47.1689   52.0034 H   0  0  0  0  0  0  0  0  0  0  0  0
    8.3540   46.7011   50.7785 H   0  0  0  0  0  0  0  0  0  0  0  0
    5.4283   47.3605   51.4595 H   0  0  0  0  0  0  0  0  0  0  0  0
    5.0260   44.8930   53.1830 H   0  0  0  0  0  0  0  0  0  0  0  0
    3.4595   46.7811   55.6122 H   0  0  0  0  0  0  0  0  0  0  0  0
    1.8718   45.7482   57.2331 H   0  0  0  0  0  0  0  0  0  0  0  0
    0.1173   44.1671   56.4353 H   0  0  0  0  0  0  0  0  0  0  0  0
   -0.0116   43.5579   54.0227 H   0  0  0  0  0  0  0  0  0  0  0  0
    1.7999   42.3616   53.0115 H   0  0  0  0  0  0  0  0  0  0  0  0
    1.5246   42.0078   51.2627 H   0  0  0  0  0  0  0  0  0  0  0  0
    5.9859   42.7289   50.5172 H   0  0  0  0  0  0  0  0  0  0  0  0
    5.9926   41.0663   51.1206 H   0  0  0  0  0  0  0  0  0  0  0  0
    5.8975   42.0846   48.3010 H   0  0  0  0  0  0  0  0  0  0  0  0
    6.4792   40.5185   48.8835 H   0  0  0  0  0  0  0  0  0  0  0  0
    4.0588   40.8690   47.5636 H   0  0  0  0  0  0  0  0  0  0  0  0
    4.3334   39.5368   48.6969 H   0  0  0  0  0  0  0  0  0  0  0  0
    2.7135   42.0311   49.0397 H   0  0  0  0  0  0  0  0  0  0  0  0
    2.5814   40.5108   49.9327 H   0  0  0  0  0  0  0  0  0  0  0  0
    6.6119   46.0717   49.8634 H   0  0  0  0  0  0  0  0  0  0  0  0
    6.1711   46.8048   54.5174 H   0  0  0  0  0  0  0  0  0  0  0  0
    8.2846   47.2960   55.7360 H   0  0  0  0  0  0  0  0  0  0  0  0
  1  2  1  0
  2  3  1  0
  3  4  2  0
  4  5  1  0
  5  6  2  0
  6  7  1  0
  7  8  1  0
  8  9  1  0
  9 10  2  0
  9 11  1  0
 11 12  2  0
 12 13  1  0
 13 14  2  0
 14 15  1  0
 15 16  2  0
 16 17  1  0
 17 18  1  0
 18 19  1  0
 19 20  2  0
 19 21  1  0
 21 22  1  0
 22 23  1  0
 23 24  1  0
 24 25  1  0
  7 26  1  0
 26 27  1  0
 26 28  1  0
  6 29  1  0
 29 30  2  0
 30  3  1  0
 16 11  1  0
 25 21  1  0
  1 31  1  0
  1 32  1  0
  1 33  1  0
  4 34  1  0
  5 35  1  0
  7 36  1  6
  8 37  1  0
 12 38  1  0
 13 39  1  0
 14 40  1  0
 15 41  1  0
 18 42  1  0
 18 43  1  0
 22 44  1  0
 22 45  1  0
 23 46  1  0
 23 47  1  0
 24 48  1  0
 24 49  1  0
 25 50  1  0
 25 51  1  0
 26 52  1  0
 29 53  1  0
 30 54  1  0
M  END
>  <meeko>  (1) 
{"is_sidechain": [false], "free_energy": -8.285, "intermolecular_energy": -12.159, "internal_energy": -1.908}

$$$$
ligand_72_conformer_2_docked
     RDKit          3D

 54 56  0  0  0  0  0  0  0  0999 V2000
   -0.8870   43.1950   50.5770 C   0  0  0  0  0  0  0  0  0  0  0  0
    0.5330   43.2000   50.4710 O   0  0  0  0  0  0  0  0  0  0  0  0
    1.3920   43.8960   51.3350 C   0  0  0  0  0  0  0  0  0  0  0  0
    2.2390   44.9270   50.8910 C   0  0  0  0  0  0  0  0  0  0  0  0
    3.0770   45.5900   51.7930 C   0  0  0  0  0  0  0  0  0  0  0  0
    3.0720   45.2470   53.1570 C   0  0  0  0  0  0  0  0  0  0  0  0
    3.9780   45.9570   54.1430 C   0  0  2  0  0  0  0  0  0  0  0  0
    5.3860   45.8080   53.7550 N   0  0  0  0  0  0  0  0  0  0  0  0
    6.1940   46.9250   53.3630 C   0  0  0  0  0  0  0  0  0  0  0  0
    5.7230   48.0930   53.3970 O   0  0  0  0  0  0  0  0  0  0  0  0
    7.6000   46.7250   52.9770 C   0  0  0  0  0  0  0  0  0  0  0  0
    8.6060   47.1090   53.8750 C   0  0  0  0  0  0  0  0  0  0  0  0
    9.9520   46.9450   53.5360 C   0  0  0  0  0  0  0  0  0  0  0  0
   10.3040   46.4090   52.2970 C   0  0  0  0  0  0  0  0  0  0  0  0
    9.3120   46.0510   51.3840 C   0  0  0  0  0  0  0  0  0  0  0  0
    7.9570   46.1860   51.7180 C   0  0  0  0  0  0  0  0  0  0  0  0
    6.7170   45.7720   50.4820 S   0  0  0  0  0  0  0  0  0  0  0  0
    6.5080   44.0330   50.9960 C   0  0  0  0  0  0  0  0  0  0  0  0
    6.4770   43.1260   49.7980 C   0  0  0  0  0  0  0  0  0  0  0  0
    7.3760   43.2560   48.9240 O   0  0  0  0  0  0  0  0  0  0  0  0
    5.4630   42.1190   49.6280 N   0  0  0  0  0  0  0  0  0  0  0  0
    5.4060   41.2600   48.4560 C   0  0  0  0  0  0  0  0  0  0  0  0
    4.0440   40.5930   48.5030 C   0  0  0  0  0  0  0  0  0  0  0  0
    3.5650   40.7340   49.9440 C   0  0  0  0  0  0  0  0  0  0  0  0
    4.3470   41.9040   50.5310 C   0  0  0  0  0  0  0  0  0  0  0  0
    3.7470   45.4430   55.5740 C   0  0  0  0  0  0  0  0  0  0  0  0
    3.1550   46.4170   56.3630 F   0  0  0  0  0  0  0  0  0  0  0  0
    4.9510   45.0630   56.1450 F   0  0  0  0  0  0  0  0  0  0  0  0
    2.2330   44.2090   53.5930 C   0  0  0  0  0  0  0  0  0  0  0  0
    1.4010   43.5420   52.6890 C   0  0  0  0  0  0  0  0  0  0  0  0
   -1.1754   43.1940   51.6385 H   0  0  0  0  0  0  0  0  0  0  0  0
   -1.2944   44.0917   50.0872 H   0  0  0  0  0  0  0  0  0  0  0  0
   -1.2881   42.2954   50.0872 H   0  0  0  0  0  0  0  0  0  0  0  0
    2.2424   45.2133   49.8289 H   0  0  0  0  0  0  0  0  0  0  0  0
    3.7453   46.3860   51.4329 H   0  0  0  0  0  0  0  0  0  0  0  0
    3.7279   47.0280   54.1245 H   0  0  0  0  0  0  0  0  0  0  0  0
    5.8500   44.8790   53.8500 H   0  0  0  0  0  0  0  0  0  0  0  0
    8.3350   47.5408   54.8497 H   0  0  0  0  0  0  0  0  0  0  0  0
   10.7365   47.2396   54.2486 H   0  0  0  0  0  0  0  0  0  0  0  0
   11.3643   46.2686   52.0399 H   0  0  0  0  0  0  0  0  0  0  0  0
    9.5947   45.6602   50.3954 H   0  0  0  0  0  0  0  0  0  0  0  0
    7.3476   43.7449   51.6456 H   0  0  0  0  0  0  0  0  0  0  0  0
    5.5558   43.9361   51.5382 H   0  0  0  0  0  0  0  0  0  0  0  0
    5.5096   41.8565   47.5376 H   0  0  0  0  0  0  0  0  0  0  0  0
    6.2207   40.5209   48.4538 H   0  0  0  0  0  0  0  0  0  0  0  0
    3.3470   41.0955   47.8162 H   0  0  0  0  0  0  0  0  0  0  0  0
    4.0974   39.5386   48.1942 H   0  0  0  0  0  0  0  0  0  0  0  0
    2.4855   40.9438   49.9697 H   0  0  0  0  0  0  0  0  0  0  0  0
    3.7299   39.8096   50.5170 H   0  0  0  0  0  0  0  0  0  0  0  0
    3.7144   42.8025   50.5805 H   0  0  0  0  0  0  0  0  0  0  0  0
    4.6870   41.6935   51.5557 H   0  0  0  0  0  0  0  0  0  0  0  0
    3.0734   44.5753   55.5162 H   0  0  0  0  0  0  0  0  0  0  0  0
    2.2303   43.9184   54.6539 H   0  0  0  0  0  0  0  0  0  0  0  0
    0.7477   42.7318   53.0450 H   0  0  0  0  0  0  0  0  0  0  0  0
  1  2  1  0
  2  3  1  0
  3  4  2  0
  4  5  1  0
  5  6  2  0
  6  7  1  0
  7  8  1  0
  8  9  1  0
  9 10  2  0
  9 11  1  0
 11 12  2  0
 12 13  1  0
 13 14  2  0
 14 15  1  0
 15 16  2  0
 16 17  1  0
 17 18  1  0
 18 19  1  0
 19 20  2  0
 19 21  1  0
 21 22  1  0
 22 23  1  0
 23 24  1  0
 24 25  1  0
  7 26  1  0
 26 27  1  0
 26 28  1  0
  6 29  1  0
 29 30  2  0
 30  3  1  0
 16 11  1  0
 25 21  1  0
  1 31  1  0
  1 32  1  0
  1 33  1  0
  4 34  1  0
  5 35  1  0
  7 36  1  1
  8 37  1  0
 12 38  1  0
 13 39  1  0
 14 40  1  0
 15 41  1  0
 18 42  1  0
 18 43  1  0
 22 44  1  0
 22 45  1  0
 23 46  1  0
 23 47  1  0
 24 48  1  0
 24 49  1  0
 25 50  1  0
 25 51  1  0
 26 52  1  0
 29 53  1  0
 30 54  1  0
M  END
>  <meeko>  (2) 
{"is_sidechain": [false], "free_energy": -8.216, "intermolecular_energy": -12.294, "internal_energy": -1.672}

$$$$
ligand_72_conformer_2_docked
     RDKit          3D

 54 56  0  0  0  0  0  0  0  0999 V2000
    4.5360   39.5080   43.9910 C   0  0  0  0  0  0  0  0  0  0  0  0
    3.7370   40.1350   44.9890 O   0  0  0  0  0  0  0  0  0  0  0  0
    4.2340   40.6590   46.1910 C   0  0  0  0  0  0  0  0  0  0  0  0
    3.7230   40.2860   47.4480 C   0  0  0  0  0  0  0  0  0  0  0  0
    4.2530   40.8380   48.6180 C   0  0  0  0  0  0  0  0  0  0  0  0
    5.3140   41.7590   48.5560 C   0  0  0  0  0  0  0  0  0  0  0  0
    5.8950   42.3660   49.8180 C   0  0  2  0  0  0  0  0  0  0  0  0
    4.9510   43.3180   50.4180 N   0  0  0  0  0  0  0  0  0  0  0  0
    4.0090   42.9270   51.4260 C   0  0  0  0  0  0  0  0  0  0  0  0
    4.0060   41.7490   51.8710 O   0  0  0  0  0  0  0  0  0  0  0  0
    3.0790   43.9160   51.9950 C   0  0  0  0  0  0  0  0  0  0  0  0
    1.8580   44.1420   51.3450 C   0  0  0  0  0  0  0  0  0  0  0  0
    0.9560   45.0820   51.8500 C   0  0  0  0  0  0  0  0  0  0  0  0
    1.2700   45.8110   52.9980 C   0  0  0  0  0  0  0  0  0  0  0  0
    2.4950   45.6150   53.6360 C   0  0  0  0  0  0  0  0  0  0  0  0
    3.3990   44.6580   53.1560 C   0  0  0  0  0  0  0  0  0  0  0  0
    4.9940   44.4900   53.9750 S   0  0  0  0  0  0  0  0  0  0  0  0
    5.4790   46.2420   53.8080 C   0  0  0  0  0  0  0  0  0  0  0  0
    6.3280   46.4420   52.5840 C   0  0  0  0  0  0  0  0  0  0  0  0
    5.7730   46.3900   51.4540 O   0  0  0  0  0  0  0  0  0  0  0  0
    7.7420   46.6960   52.6680 N   0  0  0  0  0  0  0  0  0  0  0  0
    8.5760   46.8580   51.4890 C   0  0  0  0  0  0  0  0  0  0  0  0
   10.0080   46.7760   51.9850 C   0  0  0  0  0  0  0  0  0  0  0  0
    9.9400   47.0430   53.4850 C   0  0  0  0  0  0  0  0  0  0  0  0
    8.5080   46.7270   53.9010 C   0  0  0  0  0  0  0  0  0  0  0  0
    7.2470   43.0430   49.5330 C   0  0  0  0  0  0  0  0  0  0  0  0
    8.2970   42.2760   50.0160 F   0  0  0  0  0  0  0  0  0  0  0  0
    7.2870   44.2950   50.1230 F   0  0  0  0  0  0  0  0  0  0  0  0
    5.8120   42.1370   47.2990 C   0  0  0  0  0  0  0  0  0  0  0  0
    5.2760   41.5900   46.1300 C   0  0  0  0  0  0  0  0  0  0  0  0
    5.3136   38.8978   44.4737 H   0  0  0  0  0  0  0  0  0  0  0  0
    3.9014   38.8643   43.3641 H   0  0  0  0  0  0  0  0  0  0  0  0
    5.0103   40.2775   43.3641 H   0  0  0  0  0  0  0  0  0  0  0  0
    2.9022   39.5563   47.5103 H   0  0  0  0  0  0  0  0  0  0  0  0
    3.8369   40.5497   49.5946 H   0  0  0  0  0  0  0  0  0  0  0  0
    6.0690   41.5529   50.5381 H   0  0  0  0  0  0  0  0  0  0  0  0
    5.0190   44.3300   50.1790 H   0  0  0  0  0  0  0  0  0  0  0  0
    1.6090   43.5775   50.4343 H   0  0  0  0  0  0  0  0  0  0  0  0
   -0.0049   45.2481   51.3410 H   0  0  0  0  0  0  0  0  0  0  0  0
    0.5513   46.5404   53.3999 H   0  0  0  0  0  0  0  0  0  0  0  0
    2.7528   46.2152   54.5210 H   0  0  0  0  0  0  0  0  0  0  0  0
    4.5737   46.8613   53.7250 H   0  0  0  0  0  0  0  0  0  0  0  0
    6.0607   46.5348   54.6945 H   0  0  0  0  0  0  0  0  0  0  0  0
    8.3748   46.0559   50.7636 H   0  0  0  0  0  0  0  0  0  0  0  0
    8.3769   47.8119   50.9786 H   0  0  0  0  0  0  0  0  0  0  0  0
   10.4244   45.7764   51.7917 H   0  0  0  0  0  0  0  0  0  0  0  0
   10.6578   47.5005   51.4723 H   0  0  0  0  0  0  0  0  0  0  0  0
   10.6467   46.3930   54.0218 H   0  0  0  0  0  0  0  0  0  0  0  0
   10.2096   48.0826   53.7228 H   0  0  0  0  0  0  0  0  0  0  0  0
    8.4614   45.7513   54.4068 H   0  0  0  0  0  0  0  0  0  0  0  0
    8.1145   47.4737   54.6064 H   0  0  0  0  0  0  0  0  0  0  0  0
    7.3525   43.1438   48.4427 H   0  0  0  0  0  0  0  0  0  0  0  0
    6.6303   42.8693   47.2337 H   0  0  0  0  0  0  0  0  0  0  0  0
    5.6776   41.8946   45.1523 H   0  0  0  0  0  0  0  0  0  0  0  0
  1  2  1  0
  2  3  1  0
  3  4  2  0
  4  5  1  0
  5  6  2  0
  6  7  1  0
  7  8  1  0
  8  9  1  0
  9 10  2  0
  9 11  1  0
 11 12  2  0
 12 13  1  0
 13 14  2  0
 14 15  1  0
 15 16  2  0
 16 17  1  0
 17 18  1  0
 18 19  1  0
 19 20  2  0
 19 21  1  0
 21 22  1  0
 22 23  1  0
 23 24  1  0
 24 25  1  0
  7 26  1  0
 26 27  1  0
 26 28  1  0
  6 29  1  0
 29 30  2  0
 30  3  1  0
 16 11  1  0
 25 21  1  0
  1 31  1  0
  1 32  1  0
  1 33  1  0
  4 34  1  0
  5 35  1  0
  7 36  1  1
  8 37  1  0
 12 38  1  0
 13 39  1  0
 14 40  1  0
 15 41  1  0
 18 42  1  0
 18 43  1  0
 22 44  1  0
 22 45  1  0
 23 46  1  0
 23 47  1  0
 24 48  1  0
 24 49  1  0
 25 50  1  0
 25 51  1  0
 26 52  1  0
 29 53  1  0
 30 54  1  0
M  END
>  <meeko>  (3) 
{"is_sidechain": [false], "free_energy": -7.934, "intermolecular_energy": -12.031, "internal_energy": -1.521}

$$$$
ligand_72_conformer_2_docked
     RDKit          3D

 54 56  0  0  0  0  0  0  0  0999 V2000
   -2.8460   43.2430   57.2390 C   0  0  0  0  0  0  0  0  0  0  0  0
   -2.5230   43.4460   55.8680 O   0  0  0  0  0  0  0  0  0  0  0  0
   -1.2860   43.9180   55.4040 C   0  0  0  0  0  0  0  0  0  0  0  0
   -0.7430   43.5270   54.1660 C   0  0  0  0  0  0  0  0  0  0  0  0
    0.4950   44.0270   53.7500 C   0  0  0  0  0  0  0  0  0  0  0  0
    1.2040   44.9380   54.5520 C   0  0  0  0  0  0  0  0  0  0  0  0
    2.5480   45.4840   54.1120 C   0  0  2  0  0  0  0  0  0  0  0  0
    3.2950   44.4740   53.3510 N   0  0  0  0  0  0  0  0  0  0  0  0
    3.3890   44.5100   51.9210 C   0  0  0  0  0  0  0  0  0  0  0  0
    2.8720   45.4580   51.2730 O   0  0  0  0  0  0  0  0  0  0  0  0
    4.1450   43.4720   51.2010 C   0  0  0  0  0  0  0  0  0  0  0  0
    3.5960   42.1850   51.1040 C   0  0  0  0  0  0  0  0  0  0  0  0
    4.2910   41.1720   50.4380 C   0  0  0  0  0  0  0  0  0  0  0  0
    5.5430   41.4310   49.8770 C   0  0  0  0  0  0  0  0  0  0  0  0
    6.1120   42.6990   49.9940 C   0  0  0  0  0  0  0  0  0  0  0  0
    5.4160   43.7330   50.6360 C   0  0  0  0  0  0  0  0  0  0  0  0
    6.2200   45.3330   50.8190 S   0  0  0  0  0  0  0  0  0  0  0  0
    7.6470   44.9510   49.7450 C   0  0  0  0  0  0  0  0  0  0  0  0
    8.9370   45.1190   50.4990 C   0  0  0  0  0  0  0  0  0  0  0  0
    9.9010   44.3590   50.2120 O   0  0  0  0  0  0  0  0  0  0  0  0
    9.1000   46.1160   51.5230 N   0  0  0  0  0  0  0  0  0  0  0  0
   10.3330   46.2620   52.2790 C   0  0  0  0  0  0  0  0  0  0  0  0
    9.9920   47.1680   53.4470 C   0  0  0  0  0  0  0  0  0  0  0  0
    8.7040   47.8830   53.0520 C   0  0  0  0  0  0  0  0  0  0  0  0
    8.0550   47.0130   51.9830 C   0  0  0  0  0  0  0  0  0  0  0  0
    3.3670   45.9760   55.3180 C   0  0  0  0  0  0  0  0  0  0  0  0
    4.0320   47.1550   55.0190 F   0  0  0  0  0  0  0  0  0  0  0  0
    4.2900   45.0130   55.6920 F   0  0  0  0  0  0  0  0  0  0  0  0
    0.6630   45.3150   55.7920 C   0  0  0  0  0  0  0  0  0  0  0  0
   -0.5700   44.8090   56.2110 C   0  0  0  0  0  0  0  0  0  0  0  0
   -2.0833   43.7224   57.8703 H   0  0  0  0  0  0  0  0  0  0  0  0
   -3.8301   43.6853   57.4532 H   0  0  0  0  0  0  0  0  0  0  0  0
   -2.8743   42.1644   57.4532 H   0  0  0  0  0  0  0  0  0  0  0  0
   -1.2945   42.8253   53.5230 H   0  0  0  0  0  0  0  0  0  0  0  0
    0.9176   43.7046   52.7869 H   0  0  0  0  0  0  0  0  0  0  0  0
    2.3653   46.3461   53.4537 H   0  0  0  0  0  0  0  0  0  0  0  0
    3.8540   43.7560   53.8600 H   0  0  0  0  0  0  0  0  0  0  0  0
    2.6149   41.9723   51.5537 H   0  0  0  0  0  0  0  0  0  0  0  0
    3.8503   40.1675   50.3555 H   0  0  0  0  0  0  0  0  0  0  0  0
    6.0811   40.6344   49.3423 H   0  0  0  0  0  0  0  0  0  0  0  0
    7.1132   42.8890   49.5799 H   0  0  0  0  0  0  0  0  0  0  0  0
    7.5667   43.9119   49.3931 H   0  0  0  0  0  0  0  0  0  0  0  0
    7.6430   45.6436   48.8904 H   0  0  0  0  0  0  0  0  0  0  0  0
   10.6793   45.2828   52.6412 H   0  0  0  0  0  0  0  0  0  0  0  0
   11.1411   46.6813   51.6617 H   0  0  0  0  0  0  0  0  0  0  0  0
    9.8368   46.5746   54.3601 H   0  0  0  0  0  0  0  0  0  0  0  0
   10.8032   47.8801   53.6589 H   0  0  0  0  0  0  0  0  0  0  0  0
    8.0382   47.9806   53.9221 H   0  0  0  0  0  0  0  0  0  0  0  0
    8.9035   48.8988   52.6800 H   0  0  0  0  0  0  0  0  0  0  0  0
    7.2179   46.4408   52.4095 H   0  0  0  0  0  0  0  0  0  0  0  0
    7.6452   47.6169   51.1600 H   0  0  0  0  0  0  0  0  0  0  0  0
    2.6692   46.1629   56.1476 H   0  0  0  0  0  0  0  0  0  0  0  0
    1.2142   46.0140   56.4382 H   0  0  0  0  0  0  0  0  0  0  0  0
   -0.9817   45.1139   57.1844 H   0  0  0  0  0  0  0  0  0  0  0  0
  1  2  1  0
  2  3  1  0
  3  4  2  0
  4  5  1  0
  5  6  2  0
  6  7  1  0
  7  8  1  0
  8  9  1  0
  9 10  2  0
  9 11  1  0
 11 12  2  0
 12 13  1  0
 13 14  2  0
 14 15  1  0
 15 16  2  0
 16 17  1  0
 17 18  1  0
 18 19  1  0
 19 20  2  0
 19 21  1  0
 21 22  1  0
 22 23  1  0
 23 24  1  0
 24 25  1  0
  7 26  1  0
 26 27  1  0
 26 28  1  0
  6 29  1  0
 29 30  2  0
 30  3  1  0
 16 11  1  0
 25 21  1  0
  1 31  1  0
  1 32  1  0
  1 33  1  0
  4 34  1  0
  5 35  1  0
  7 36  1  6
  8 37  1  0
 12 38  1  0
 13 39  1  0
 14 40  1  0
 15 41  1  0
 18 42  1  0
 18 43  1  0
 22 44  1  0
 22 45  1  0
 23 46  1  0
 23 47  1  0
 24 48  1  0
 24 49  1  0
 25 50  1  0
 25 51  1  0
 26 52  1  0
 29 53  1  0
 30 54  1  0
M  END
>  <meeko>  (4) 
{"is_sidechain": [false], "free_energy": -7.777, "intermolecular_energy": -13.272, "internal_energy": -0.049}

$$$$
ligand_72_conformer_2_docked
     RDKit          3D

 54 56  0  0  0  0  0  0  0  0999 V2000
   -0.3230   47.5520   58.6470 C   0  0  0  0  0  0  0  0  0  0  0  0
    0.5220   46.4510   58.3310 O   0  0  0  0  0  0  0  0  0  0  0  0
    0.4890   45.7450   57.1190 C   0  0  0  0  0  0  0  0  0  0  0  0
   -0.6780   45.1210   56.6390 C   0  0  0  0  0  0  0  0  0  0  0  0
   -0.6590   44.4290   55.4240 C   0  0  0  0  0  0  0  0  0  0  0  0
    0.5180   44.3620   54.6590 C   0  0  0  0  0  0  0  0  0  0  0  0
    0.5510   43.6120   53.3410 C   0  0  2  0  0  0  0  0  0  0  0  0
    1.9290   43.4910   52.8480 N   0  0  0  0  0  0  0  0  0  0  0  0
    2.2290   43.0180   51.5280 C   0  0  0  0  0  0  0  0  0  0  0  0
    1.2990   42.7430   50.7240 O   0  0  0  0  0  0  0  0  0  0  0  0
    3.6270   42.9080   51.0800 C   0  0  0  0  0  0  0  0  0  0  0  0
    4.0730   41.6840   50.5620 C   0  0  0  0  0  0  0  0  0  0  0  0
    5.3970   41.5400   50.1380 C   0  0  0  0  0  0  0  0  0  0  0  0
    6.2870   42.6110   50.2390 C   0  0  0  0  0  0  0  0  0  0  0  0
    5.8610   43.8230   50.7810 C   0  0  0  0  0  0  0  0  0  0  0  0
    4.5300   43.9920   51.1860 C   0  0  0  0  0  0  0  0  0  0  0  0
    4.0470   45.5530   51.9390 S   0  0  0  0  0  0  0  0  0  0  0  0
    5.5990   46.4360   51.5560 C   0  0  0  0  0  0  0  0  0  0  0  0
    6.2840   46.8760   52.8200 C   0  0  0  0  0  0  0  0  0  0  0  0
    5.5760   47.3260   53.7610 O   0  0  0  0  0  0  0  0  0  0  0  0
    7.7110   46.7920   52.9840 N   0  0  0  0  0  0  0  0  0  0  0  0
    8.3850   47.2460   54.1900 C   0  0  0  0  0  0  0  0  0  0  0  0
    9.8610   47.2940   53.8410 C   0  0  0  0  0  0  0  0  0  0  0  0
   10.0210   46.4170   52.6030 C   0  0  0  0  0  0  0  0  0  0  0  0
    8.6400   46.3460   51.9620 C   0  0  0  0  0  0  0  0  0  0  0  0
   -0.3470   44.2940   52.2950 C   0  0  0  0  0  0  0  0  0  0  0  0
   -0.3340   45.6720   52.4520 F   0  0  0  0  0  0  0  0  0  0  0  0
   -1.6480   43.8340   52.4110 F   0  0  0  0  0  0  0  0  0  0  0  0
    1.6830   44.9760   55.1480 C   0  0  0  0  0  0  0  0  0  0  0  0
    1.6650   45.6610   56.3660 C   0  0  0  0  0  0  0  0  0  0  0  0
   -0.4005   47.6530   59.7396 H   0  0  0  0  0  0  0  0  0  0  0  0
    0.1017   48.4738   58.2228 H   0  0  0  0  0  0  0  0  0  0  0  0
   -1.3233   47.3801   58.2228 H   0  0  0  0  0  0  0  0  0  0  0  0
   -1.6089   45.1780   57.2222 H   0  0  0  0  0  0  0  0  0  0  0  0
   -1.5726   43.9331   55.0642 H   0  0  0  0  0  0  0  0  0  0  0  0
    0.1573   42.5997   53.5148 H   0  0  0  0  0  0  0  0  0  0  0  0
    2.7170   43.8420   53.4320 H   0  0  0  0  0  0  0  0  0  0  0  0
    3.3786   40.8340   50.4890 H   0  0  0  0  0  0  0  0  0  0  0  0
    5.7388   40.5801   49.7235 H   0  0  0  0  0  0  0  0  0  0  0  0
    7.3244   42.4986   49.8909 H   0  0  0  0  0  0  0  0  0  0  0  0
    6.5748   44.6526   50.8915 H   0  0  0  0  0  0  0  0  0  0  0  0
    6.2680   45.7651   50.9971 H   0  0  0  0  0  0  0  0  0  0  0  0
    5.3614   47.3253   50.9537 H   0  0  0  0  0  0  0  0  0  0  0  0
    8.0259   48.2453   54.4772 H   0  0  0  0  0  0  0  0  0  0  0  0
    8.1902   46.5767   55.0409 H   0  0  0  0  0  0  0  0  0  0  0  0
   10.1700   48.3267   53.6220 H   0  0  0  0  0  0  0  0  0  0  0  0
   10.4868   46.9396   54.6733 H   0  0  0  0  0  0  0  0  0  0  0  0
   10.7439   46.8664   51.9062 H   0  0  0  0  0  0  0  0  0  0  0  0
   10.3987   45.4168   52.8619 H   0  0  0  0  0  0  0  0  0  0  0  0
    8.5902   47.0062   51.0836 H   0  0  0  0  0  0  0  0  0  0  0  0
    8.4048   45.3292   51.6144 H   0  0  0  0  0  0  0  0  0  0  0  0
    0.0466   44.0463   51.2981 H   0  0  0  0  0  0  0  0  0  0  0  0
    2.6159   44.9172   54.5682 H   0  0  0  0  0  0  0  0  0  0  0  0
    2.5842   46.1386   56.7361 H   0  0  0  0  0  0  0  0  0  0  0  0
  1  2  1  0
  2  3  1  0
  3  4  2  0
  4  5  1  0
  5  6  2  0
  6  7  1  0
  7  8  1  0
  8  9  1  0
  9 10  2  0
  9 11  1  0
 11 12  2  0
 12 13  1  0
 13 14  2  0
 14 15  1  0
 15 16  2  0
 16 17  1  0
 17 18  1  0
 18 19  1  0
 19 20  2  0
 19 21  1  0
 21 22  1  0
 22 23  1  0
 23 24  1  0
 24 25  1  0
  7 26  1  0
 26 27  1  0
 26 28  1  0
  6 29  1  0
 29 30  2  0
 30  3  1  0
 16 11  1  0
 25 21  1  0
  1 31  1  0
  1 32  1  0
  1 33  1  0
  4 34  1  0
  5 35  1  0
  7 36  1  1
  8 37  1  0
 12 38  1  0
 13 39  1  0
 14 40  1  0
 15 41  1  0
 18 42  1  0
 18 43  1  0
 22 44  1  0
 22 45  1  0
 23 46  1  0
 23 47  1  0
 24 48  1  0
 24 49  1  0
 25 50  1  0
 25 51  1  0
 26 52  1  0
 29 53  1  0
 30 54  1  0
M  END
>  <meeko>  (5) 
{"is_sidechain": [false], "free_energy": -7.76, "intermolecular_energy": -12.979, "internal_energy": -0.319}

$$$$
