ligand_80_conformer_5_docked
     RDKit          3D

 43 45  0  0  0  0  0  0  0  0999 V2000
    9.8540   47.6110   55.3120 C   0  0  0  0  0  0  0  0  0  0  0  0
    9.3210   47.2340   54.0010 N   0  0  0  0  0  0  0  0  0  0  0  0
   10.1930   47.1820   52.8200 C   0  0  0  0  0  0  0  0  0  0  0  0
    9.8620   45.9580   51.9600 C   0  0  0  0  0  0  0  0  0  0  0  0
    8.3870   45.8960   51.6430 C   0  0  0  0  0  0  0  0  0  0  0  0
    7.9490   45.2880   50.4570 C   0  0  0  0  0  0  0  0  0  0  0  0
    6.5840   45.1680   50.1880 C   0  0  0  0  0  0  0  0  0  0  0  0
    5.6330   45.6510   51.1030 C   0  0  0  0  0  0  0  0  0  0  0  0
    4.2230   45.5110   50.8590 N   0  0  0  0  0  0  0  0  0  0  0  0
    3.4530   44.3560   51.2230 C   0  0  0  0  0  0  0  0  0  0  0  0
    4.0230   43.2640   51.4960 O   0  0  0  0  0  0  0  0  0  0  0  0
    1.9570   44.4300   51.2400 C   0  0  0  0  0  0  0  0  0  0  0  0
    1.4720   44.4840   52.6240 N   0  0  0  0  0  0  0  0  0  0  0  0
    0.9800   43.2660   53.2810 C   0  0  0  0  0  0  0  0  0  0  0  0
   -0.1680   43.5960   54.2380 C   0  0  0  0  0  0  0  0  0  0  0  0
    0.2900   44.6180   55.2830 C   0  0  0  0  0  0  0  0  0  0  0  0
    0.8660   45.7990   54.6430 N   0  0  0  0  0  0  0  0  0  0  0  0
    1.5090   45.7170   53.3670 C   0  0  0  0  0  0  0  0  0  0  0  0
    2.0790   46.7360   52.8900 O   0  0  0  0  0  0  0  0  0  0  0  0
    6.0690   46.2200   52.3080 C   0  0  0  0  0  0  0  0  0  0  0  0
    7.4410   46.3500   52.5820 C   0  0  0  0  0  0  0  0  0  0  0  0
    7.9180   46.9590   53.8410 C   0  0  0  0  0  0  0  0  0  0  0  0
    7.1080   47.2230   54.7720 O   0  0  0  0  0  0  0  0  0  0  0  0
    9.2295   47.1693   56.1025 H   0  0  0  0  0  0  0  0  0  0  0  0
   10.8850   47.2402   55.4091 H   0  0  0  0  0  0  0  0  0  0  0  0
    9.8478   48.7067   55.4091 H   0  0  0  0  0  0  0  0  0  0  0  0
   10.0474   48.0940   52.2224 H   0  0  0  0  0  0  0  0  0  0  0  0
   11.2386   47.1092   53.1536 H   0  0  0  0  0  0  0  0  0  0  0  0
   10.4290   46.0166   51.0192 H   0  0  0  0  0  0  0  0  0  0  0  0
   10.1357   45.0530   52.5222 H   0  0  0  0  0  0  0  0  0  0  0  0
    8.6847   44.9038   49.7351 H   0  0  0  0  0  0  0  0  0  0  0  0
    6.2510   44.6923   49.2538 H   0  0  0  0  0  0  0  0  0  0  0  0
    3.7360   46.2750   50.3380 H   0  0  0  0  0  0  0  0  0  0  0  0
    1.6310   45.3338   50.7044 H   0  0  0  0  0  0  0  0  0  0  0  0
    1.5460   43.5359   50.7484 H   0  0  0  0  0  0  0  0  0  0  0  0
    0.6215   42.5621   52.5155 H   0  0  0  0  0  0  0  0  0  0  0  0
    1.8028   42.8163   53.8561 H   0  0  0  0  0  0  0  0  0  0  0  0
   -1.0092   44.0140   53.6656 H   0  0  0  0  0  0  0  0  0  0  0  0
   -0.4828   42.6753   54.7511 H   0  0  0  0  0  0  0  0  0  0  0  0
   -0.5747   44.9237   55.8904 H   0  0  0  0  0  0  0  0  0  0  0  0
    1.0596   44.1516   55.9156 H   0  0  0  0  0  0  0  0  0  0  0  0
    0.9200   46.6900   55.1870 H   0  0  0  0  0  0  0  0  0  0  0  0
    5.3305   46.5677   53.0454 H   0  0  0  0  0  0  0  0  0  0  0  0
  1  2  1  0
  2  3  1  0
  3  4  1  0
  4  5  1  0
  5  6  2  0
  6  7  1  0
  7  8  2  0
  8  9  1  0
  9 10  1  0
 10 11  2  0
 10 12  1  0
 12 13  1  0
 13 14  1  0
 14 15  1  0
 15 16  1  0
 16 17  1  0
 17 18  1  0
 18 19  2  0
  8 20  1  0
 20 21  2  0
 21 22  1  0
 22 23  2  0
 22  2  1  0
 21  5  1  0
 18 13  1  0
  1 24  1  0
  1 25  1  0
  1 26  1  0
  3 27  1  0
  3 28  1  0
  4 29  1  0
  4 30  1  0
  6 31  1  0
  7 32  1  0
  9 33  1  0
 12 34  1  0
 12 35  1  0
 14 36  1  0
 14 37  1  0
 15 38  1  0
 15 39  1  0
 16 40  1  0
 16 41  1  0
 17 42  1  0
 20 43  1  0
M  END
>  <meeko>  (1) 
{"is_sidechain": [false], "free_energy": -8.612, "intermolecular_energy": -10.122, "internal_energy": -0.59}

$$$$
ligand_80_conformer_5_docked
     RDKit          3D

 43 45  0  0  0  0  0  0  0  0999 V2000
    9.8280   47.5900   55.0950 C   0  0  0  0  0  0  0  0  0  0  0  0
    9.1620   47.2320   53.8410 N   0  0  0  0  0  0  0  0  0  0  0  0
    9.9130   47.1730   52.5790 C   0  0  0  0  0  0  0  0  0  0  0  0
    9.4760   45.9610   51.7500 C   0  0  0  0  0  0  0  0  0  0  0  0
    7.9760   45.9270   51.5790 C   0  0  0  0  0  0  0  0  0  0  0  0
    7.4120   45.3360   50.4400 C   0  0  0  0  0  0  0  0  0  0  0  0
    6.0250   45.2420   50.3060 C   0  0  0  0  0  0  0  0  0  0  0  0
    5.1780   45.7340   51.3130 C   0  0  0  0  0  0  0  0  0  0  0  0
    3.7480   45.6220   51.2090 N   0  0  0  0  0  0  0  0  0  0  0  0
    2.9760   44.5780   51.8210 C   0  0  0  0  0  0  0  0  0  0  0  0
    3.5330   43.5210   52.2270 O   0  0  0  0  0  0  0  0  0  0  0  0
    1.4900   44.7220   51.9440 C   0  0  0  0  0  0  0  0  0  0  0  0
    1.1210   44.9370   53.3480 N   0  0  0  0  0  0  0  0  0  0  0  0
    1.9800   45.7490   54.2190 C   0  0  0  0  0  0  0  0  0  0  0  0
    1.9640   45.2060   55.6500 C   0  0  0  0  0  0  0  0  0  0  0  0
    0.5320   45.1780   56.1910 C   0  0  0  0  0  0  0  0  0  0  0  0
   -0.3540   44.4480   55.2860 N   0  0  0  0  0  0  0  0  0  0  0  0
   -0.1010   44.3900   53.8790 C   0  0  0  0  0  0  0  0  0  0  0  0
   -0.9370   43.8340   53.1170 O   0  0  0  0  0  0  0  0  0  0  0  0
    5.7410   46.2870   52.4720 C   0  0  0  0  0  0  0  0  0  0  0  0
    7.1350   46.3910   52.6100 C   0  0  0  0  0  0  0  0  0  0  0  0
    7.7450   46.9830   53.8190 C   0  0  0  0  0  0  0  0  0  0  0  0
    7.0360   47.2540   54.8260 O   0  0  0  0  0  0  0  0  0  0  0  0
    9.2125   47.2591   55.9445 H   0  0  0  0  0  0  0  0  0  0  0  0
   10.8112   47.0988   55.1412 H   0  0  0  0  0  0  0  0  0  0  0  0
    9.9607   48.6810   55.1412 H   0  0  0  0  0  0  0  0  0  0  0  0
    9.7261   48.0915   52.0034 H   0  0  0  0  0  0  0  0  0  0  0  0
   10.9850   47.0797   52.8073 H   0  0  0  0  0  0  0  0  0  0  0  0
    9.9488   46.0156   50.7583 H   0  0  0  0  0  0  0  0  0  0  0  0
    9.7866   45.0478   52.2787 H   0  0  0  0  0  0  0  0  0  0  0  0
    8.0657   44.9439   49.6470 H   0  0  0  0  0  0  0  0  0  0  0  0
    5.5930   44.7797   49.4062 H   0  0  0  0  0  0  0  0  0  0  0  0
    3.2430   46.3110   50.6070 H   0  0  0  0  0  0  0  0  0  0  0  0
    1.1564   45.5815   51.3440 H   0  0  0  0  0  0  0  0  0  0  0  0
    1.0069   43.8031   51.5804 H   0  0  0  0  0  0  0  0  0  0  0  0
    3.0104   45.7247   53.8347 H   0  0  0  0  0  0  0  0  0  0  0  0
    1.6010   46.7816   54.2275 H   0  0  0  0  0  0  0  0  0  0  0  0
    2.3742   44.1853   55.6556 H   0  0  0  0  0  0  0  0  0  0  0  0
    2.5752   45.8609   56.2884 H   0  0  0  0  0  0  0  0  0  0  0  0
    0.5282   44.6847   57.1742 H   0  0  0  0  0  0  0  0  0  0  0  0
    0.1694   46.2128   56.2785 H   0  0  0  0  0  0  0  0  0  0  0  0
   -1.2560   44.0720   55.6590 H   0  0  0  0  0  0  0  0  0  0  0  0
    5.0852   46.6426   53.2804 H   0  0  0  0  0  0  0  0  0  0  0  0
  1  2  1  0
  2  3  1  0
  3  4  1  0
  4  5  1  0
  5  6  2  0
  6  7  1  0
  7  8  2  0
  8  9  1  0
  9 10  1  0
 10 11  2  0
 10 12  1  0
 12 13  1  0
 13 14  1  0
 14 15  1  0
 15 16  1  0
 16 17  1  0
 17 18  1  0
 18 19  2  0
  8 20  1  0
 20 21  2  0
 21 22  1  0
 22 23  2  0
 22  2  1  0
 21  5  1  0
 18 13  1  0
  1 24  1  0
  1 25  1  0
  1 26  1  0
  3 27  1  0
  3 28  1  0
  4 29  1  0
  4 30  1  0
  6 31  1  0
  7 32  1  0
  9 33  1  0
 12 34  1  0
 12 35  1  0
 14 36  1  0
 14 37  1  0
 15 38  1  0
 15 39  1  0
 16 40  1  0
 16 41  1  0
 17 42  1  0
 20 43  1  0
M  END
>  <meeko>  (2) 
{"is_sidechain": [false], "free_energy": -8.353, "intermolecular_energy": -9.946, "internal_energy": -0.463}

$$$$
ligand_80_conformer_5_docked
     RDKit          3D

 43 45  0  0  0  0  0  0  0  0999 V2000
    9.5960   47.4650   53.6360 C   0  0  0  0  0  0  0  0  0  0  0  0
    8.4370   46.9480   52.9060 N   0  0  0  0  0  0  0  0  0  0  0  0
    8.3410   47.0870   51.4470 C   0  0  0  0  0  0  0  0  0  0  0  0
    7.7860   45.8030   50.8190 C   0  0  0  0  0  0  0  0  0  0  0  0
    6.5000   45.3810   51.4860 C   0  0  0  0  0  0  0  0  0  0  0  0
    5.5360   44.6640   50.7620 C   0  0  0  0  0  0  0  0  0  0  0  0
    4.3720   44.2120   51.3900 C   0  0  0  0  0  0  0  0  0  0  0  0
    4.1550   44.4670   52.7550 C   0  0  0  0  0  0  0  0  0  0  0  0
    2.9790   43.9860   53.4270 N   0  0  0  0  0  0  0  0  0  0  0  0
    1.9120   44.8300   53.8850 C   0  0  0  0  0  0  0  0  0  0  0  0
    2.0830   46.0740   54.0050 O   0  0  0  0  0  0  0  0  0  0  0  0
    0.5940   44.2280   54.2640 C   0  0  0  0  0  0  0  0  0  0  0  0
   -0.1810   43.9150   53.0570 N   0  0  0  0  0  0  0  0  0  0  0  0
   -0.4390   44.9590   52.0570 C   0  0  0  0  0  0  0  0  0  0  0  0
   -1.8160   44.7640   51.4170 C   0  0  0  0  0  0  0  0  0  0  0  0
   -1.9120   43.3760   50.7770 C   0  0  0  0  0  0  0  0  0  0  0  0
   -1.5700   42.3310   51.7400 N   0  0  0  0  0  0  0  0  0  0  0  0
   -0.6630   42.5790   52.8200 C   0  0  0  0  0  0  0  0  0  0  0  0
   -0.3160   41.6300   53.5730 O   0  0  0  0  0  0  0  0  0  0  0  0
    5.1380   45.1460   53.4900 C   0  0  0  0  0  0  0  0  0  0  0  0
    6.3070   45.6090   52.8630 C   0  0  0  0  0  0  0  0  0  0  0  0
    7.3460   46.3390   53.6200 C   0  0  0  0  0  0  0  0  0  0  0  0
    7.2870   46.4150   54.8770 O   0  0  0  0  0  0  0  0  0  0  0  0
    9.4140   47.3838   54.7178 H   0  0  0  0  0  0  0  0  0  0  0  0
   10.4883   46.8796   53.3693 H   0  0  0  0  0  0  0  0  0  0  0  0
    9.7565   48.5200   53.3693 H   0  0  0  0  0  0  0  0  0  0  0  0
    7.6712   47.9259   51.2069 H   0  0  0  0  0  0  0  0  0  0  0  0
    9.3460   47.2750   51.0413 H   0  0  0  0  0  0  0  0  0  0  0  0
    7.5946   45.9799   49.7503 H   0  0  0  0  0  0  0  0  0  0  0  0
    8.5272   45.0013   50.9528 H   0  0  0  0  0  0  0  0  0  0  0  0
    5.6970   44.4563   49.6939 H   0  0  0  0  0  0  0  0  0  0  0  0
    3.6210   43.6532   50.8123 H   0  0  0  0  0  0  0  0  0  0  0  0
    2.9180   42.9650   53.6440 H   0  0  0  0  0  0  0  0  0  0  0  0
    0.7665   43.3043   54.8358 H   0  0  0  0  0  0  0  0  0  0  0  0
    0.0317   44.9473   54.8776 H   0  0  0  0  0  0  0  0  0  0  0  0
   -0.4036   45.9440   52.5454 H   0  0  0  0  0  0  0  0  0  0  0  0
    0.3290   44.8955   51.2720 H   0  0  0  0  0  0  0  0  0  0  0  0
   -2.5927   44.8619   52.1898 H   0  0  0  0  0  0  0  0  0  0  0  0
   -1.9607   45.5280   50.6389 H   0  0  0  0  0  0  0  0  0  0  0  0
   -2.9400   43.2144   50.4206 H   0  0  0  0  0  0  0  0  0  0  0  0
   -1.2016   43.3265   49.9387 H   0  0  0  0  0  0  0  0  0  0  0  0
   -1.8940   41.3540   51.5600 H   0  0  0  0  0  0  0  0  0  0  0  0
    4.9924   45.3175   54.5667 H   0  0  0  0  0  0  0  0  0  0  0  0
  1  2  1  0
  2  3  1  0
  3  4  1  0
  4  5  1  0
  5  6  2  0
  6  7  1  0
  7  8  2  0
  8  9  1  0
  9 10  1  0
 10 11  2  0
 10 12  1  0
 12 13  1  0
 13 14  1  0
 14 15  1  0
 15 16  1  0
 16 17  1  0
 17 18  1  0
 18 19  2  0
  8 20  1  0
 20 21  2  0
 21 22  1  0
 22 23  2  0
 22  2  1  0
 21  5  1  0
 18 13  1  0
  1 24  1  0
  1 25  1  0
  1 26  1  0
  3 27  1  0
  3 28  1  0
  4 29  1  0
  4 30  1  0
  6 31  1  0
  7 32  1  0
  9 33  1  0
 12 34  1  0
 12 35  1  0
 14 36  1  0
 14 37  1  0
 15 38  1  0
 15 39  1  0
 16 40  1  0
 16 41  1  0
 17 42  1  0
 20 43  1  0
M  END
>  <meeko>  (3) 
{"is_sidechain": [false], "free_energy": -8.126, "intermolecular_energy": -9.827, "internal_energy": -0.314}

$$$$
ligand_80_conformer_5_docked
     RDKit          3D

 43 45  0  0  0  0  0  0  0  0999 V2000
    9.4720   47.6080   53.7240 C   0  0  0  0  0  0  0  0  0  0  0  0
    8.3450   47.0370   52.9840 N   0  0  0  0  0  0  0  0  0  0  0  0
    8.2600   47.1650   51.5230 C   0  0  0  0  0  0  0  0  0  0  0  0
    7.7690   45.8560   50.8960 C   0  0  0  0  0  0  0  0  0  0  0  0
    6.4940   45.3820   51.5500 C   0  0  0  0  0  0  0  0  0  0  0  0
    5.5710   44.6200   50.8190 C   0  0  0  0  0  0  0  0  0  0  0  0
    4.4200   44.1220   51.4350 C   0  0  0  0  0  0  0  0  0  0  0  0
    4.1760   44.3730   52.7960 C   0  0  0  0  0  0  0  0  0  0  0  0
    3.0140   43.8460   53.4560 N   0  0  0  0  0  0  0  0  0  0  0  0
    1.6670   44.2470   53.1610 C   0  0  0  0  0  0  0  0  0  0  0  0
    1.4400   45.3120   52.5240 O   0  0  0  0  0  0  0  0  0  0  0  0
    0.5170   43.4200   53.6480 C   0  0  0  0  0  0  0  0  0  0  0  0
   -0.2440   44.1640   54.6580 N   0  0  0  0  0  0  0  0  0  0  0  0
    0.4470   45.0830   55.5720 C   0  0  0  0  0  0  0  0  0  0  0  0
   -0.2250   45.0800   56.9480 C   0  0  0  0  0  0  0  0  0  0  0  0
   -1.7010   45.4660   56.8180 C   0  0  0  0  0  0  0  0  0  0  0  0
   -2.3810   44.6160   55.8430 N   0  0  0  0  0  0  0  0  0  0  0  0
   -1.6760   44.0340   54.7410 C   0  0  0  0  0  0  0  0  0  0  0  0
   -2.3120   43.3870   53.8670 O   0  0  0  0  0  0  0  0  0  0  0  0
    5.1190   45.0980   53.5380 C   0  0  0  0  0  0  0  0  0  0  0  0
    6.2750   45.6080   52.9230 C   0  0  0  0  0  0  0  0  0  0  0  0
    7.2720   46.3850   53.6880 C   0  0  0  0  0  0  0  0  0  0  0  0
    7.1950   46.4650   54.9440 O   0  0  0  0  0  0  0  0  0  0  0  0
    9.2867   47.5141   54.8042 H   0  0  0  0  0  0  0  0  0  0  0  0
   10.3939   47.0683   53.4619 H   0  0  0  0  0  0  0  0  0  0  0  0
    9.5821   48.6706   53.4619 H   0  0  0  0  0  0  0  0  0  0  0  0
    7.5572   47.9728   51.2709 H   0  0  0  0  0  0  0  0  0  0  0  0
    9.2605   47.3948   51.1278 H   0  0  0  0  0  0  0  0  0  0  0  0
    7.5833   46.0191   49.8241 H   0  0  0  0  0  0  0  0  0  0  0  0
    8.5424   45.0877   51.0432 H   0  0  0  0  0  0  0  0  0  0  0  0
    5.7543   44.4132   49.7543 H   0  0  0  0  0  0  0  0  0  0  0  0
    3.7003   43.5297   50.8509 H   0  0  0  0  0  0  0  0  0  0  0  0
    3.1580   43.1660   54.2380 H   0  0  0  0  0  0  0  0  0  0  0  0
   -0.1418   43.1776   52.8011 H   0  0  0  0  0  0  0  0  0  0  0  0
    0.9034   42.4933   54.0973 H   0  0  0  0  0  0  0  0  0  0  0  0
    1.4946   44.7655   55.6804 H   0  0  0  0  0  0  0  0  0  0  0  0
    0.3992   46.1001   55.1559 H   0  0  0  0  0  0  0  0  0  0  0  0
   -0.1500   44.0740   57.3865 H   0  0  0  0  0  0  0  0  0  0  0  0
    0.2810   45.8113   57.5955 H   0  0  0  0  0  0  0  0  0  0  0  0
   -2.1899   45.3527   57.7968 H   0  0  0  0  0  0  0  0  0  0  0  0
   -1.7613   46.5095   56.4754 H   0  0  0  0  0  0  0  0  0  0  0  0
   -3.4220   44.5390   55.8810 H   0  0  0  0  0  0  0  0  0  0  0  0
    4.9524   45.2692   54.6117 H   0  0  0  0  0  0  0  0  0  0  0  0
  1  2  1  0
  2  3  1  0
  3  4  1  0
  4  5  1  0
  5  6  2  0
  6  7  1  0
  7  8  2  0
  8  9  1  0
  9 10  1  0
 10 11  2  0
 10 12  1  0
 12 13  1  0
 13 14  1  0
 14 15  1  0
 15 16  1  0
 16 17  1  0
 17 18  1  0
 18 19  2  0
  8 20  1  0
 20 21  2  0
 21 22  1  0
 22 23  2  0
 22  2  1  0
 21  5  1  0
 18 13  1  0
  1 24  1  0
  1 25  1  0
  1 26  1  0
  3 27  1  0
  3 28  1  0
  4 29  1  0
  4 30  1  0
  6 31  1  0
  7 32  1  0
  9 33  1  0
 12 34  1  0
 12 35  1  0
 14 36  1  0
 14 37  1  0
 15 38  1  0
 15 39  1  0
 16 40  1  0
 16 41  1  0
 17 42  1  0
 20 43  1  0
M  END
>  <meeko>  (4) 
{"is_sidechain": [false], "free_energy": -8.049, "intermolecular_energy": -9.808, "internal_energy": -0.243}

$$$$
ligand_80_conformer_5_docked
     RDKit          3D

 43 45  0  0  0  0  0  0  0  0999 V2000
    7.8820   46.4770   51.2420 C   0  0  0  0  0  0  0  0  0  0  0  0
    6.8830   45.4820   50.8460 N   0  0  0  0  0  0  0  0  0  0  0  0
    7.1850   44.4820   49.8120 C   0  0  0  0  0  0  0  0  0  0  0  0
    6.6250   43.1120   50.2090 C   0  0  0  0  0  0  0  0  0  0  0  0
    5.1620   43.2050   50.5720 C   0  0  0  0  0  0  0  0  0  0  0  0
    4.3200   42.1000   50.3790 C   0  0  0  0  0  0  0  0  0  0  0  0
    2.9810   42.1550   50.7730 C   0  0  0  0  0  0  0  0  0  0  0  0
    2.4620   43.3160   51.3720 C   0  0  0  0  0  0  0  0  0  0  0  0
    1.0960   43.3840   51.8120 N   0  0  0  0  0  0  0  0  0  0  0  0
    0.6220   42.8460   53.0550 C   0  0  0  0  0  0  0  0  0  0  0  0
    1.3120   42.0070   53.6960 O   0  0  0  0  0  0  0  0  0  0  0  0
   -0.7220   43.2500   53.5800 C   0  0  0  0  0  0  0  0  0  0  0  0
   -0.5620   44.0970   54.7690 N   0  0  0  0  0  0  0  0  0  0  0  0
    0.5300   45.0760   54.8340 C   0  0  0  0  0  0  0  0  0  0  0  0
    1.0500   45.2090   56.2670 C   0  0  0  0  0  0  0  0  0  0  0  0
   -0.0870   45.6150   57.2090 C   0  0  0  0  0  0  0  0  0  0  0  0
   -1.2190   44.6980   57.0880 N   0  0  0  0  0  0  0  0  0  0  0  0
   -1.4920   44.0070   55.8650 C   0  0  0  0  0  0  0  0  0  0  0  0
   -2.5300   43.2990   55.7670 O   0  0  0  0  0  0  0  0  0  0  0  0
    3.3140   44.4060   51.6040 C   0  0  0  0  0  0  0  0  0  0  0  0
    4.6600   44.3590   51.2040 C   0  0  0  0  0  0  0  0  0  0  0  0
    5.5680   45.5040   51.4290 C   0  0  0  0  0  0  0  0  0  0  0  0
    5.2020   46.4820   52.1360 O   0  0  0  0  0  0  0  0  0  0  0  0
    7.9334   46.5282   52.3396 H   0  0  0  0  0  0  0  0  0  0  0  0
    8.8653   46.1887   50.8419 H   0  0  0  0  0  0  0  0  0  0  0  0
    7.5976   47.4614   50.8419 H   0  0  0  0  0  0  0  0  0  0  0  0
    6.7309   44.7966   48.8608 H   0  0  0  0  0  0  0  0  0  0  0  0
    8.2767   44.4017   49.7034 H   0  0  0  0  0  0  0  0  0  0  0  0
    6.7416   42.4179   49.3636 H   0  0  0  0  0  0  0  0  0  0  0  0
    7.1797   42.7499   51.0872 H   0  0  0  0  0  0  0  0  0  0  0  0
    4.7163   41.1849   49.9148 H   0  0  0  0  0  0  0  0  0  0  0  0
    2.3283   41.2840   50.6135 H   0  0  0  0  0  0  0  0  0  0  0  0
    0.3910   43.8040   51.1640 H   0  0  0  0  0  0  0  0  0  0  0  0
   -1.2632   43.8105   52.8035 H   0  0  0  0  0  0  0  0  0  0  0  0
   -1.2896   42.3480   53.8525 H   0  0  0  0  0  0  0  0  0  0  0  0
    1.3510   44.7456   54.1808 H   0  0  0  0  0  0  0  0  0  0  0  0
    0.1498   46.0536   54.5027 H   0  0  0  0  0  0  0  0  0  0  0  0
    1.4648   44.2440   56.5936 H   0  0  0  0  0  0  0  0  0  0  0  0
    1.8310   45.9832   56.2940 H   0  0  0  0  0  0  0  0  0  0  0  0
    0.2809   45.5978   58.2455 H   0  0  0  0  0  0  0  0  0  0  0  0
   -0.4239   46.6262   56.9369 H   0  0  0  0  0  0  0  0  0  0  0  0
   -1.9120   44.6480   57.8690 H   0  0  0  0  0  0  0  0  0  0  0  0
    2.9248   45.3055   52.1035 H   0  0  0  0  0  0  0  0  0  0  0  0
  1  2  1  0
  2  3  1  0
  3  4  1  0
  4  5  1  0
  5  6  2  0
  6  7  1  0
  7  8  2  0
  8  9  1  0
  9 10  1  0
 10 11  2  0
 10 12  1  0
 12 13  1  0
 13 14  1  0
 14 15  1  0
 15 16  1  0
 16 17  1  0
 17 18  1  0
 18 19  2  0
  8 20  1  0
 20 21  2  0
 21 22  1  0
 22 23  2  0
 22  2  1  0
 21  5  1  0
 18 13  1  0
  1 24  1  0
  1 25  1  0
  1 26  1  0
  3 27  1  0
  3 28  1  0
  4 29  1  0
  4 30  1  0
  6 31  1  0
  7 32  1  0
  9 33  1  0
 12 34  1  0
 12 35  1  0
 14 36  1  0
 14 37  1  0
 15 38  1  0
 15 39  1  0
 16 40  1  0
 16 41  1  0
 17 42  1  0
 20 43  1  0
M  END
>  <meeko>  (5) 
{"is_sidechain": [false], "free_energy": -6.881, "intermolecular_energy": -8.277, "internal_energy": -0.4}

$$$$
