ligand_5_conformer_3_docked
     RDKit          3D

 36 38  0  0  0  0  0  0  0  0999 V2000
    4.9320   47.8100   54.4010 O   0  0  0  0  0  0  0  0  0  0  0  0
    4.7060   46.5980   54.1350 C   0  0  0  0  0  0  0  0  0  0  0  0
    5.6110   45.8570   53.3000 N   0  0  0  0  0  0  0  0  0  0  0  0
    6.9360   46.3020   52.9610 C   0  0  0  0  0  0  0  0  0  0  0  0
    7.2930   46.4280   51.6100 C   0  0  0  0  0  0  0  0  0  0  0  0
    8.5820   46.8300   51.2530 C   0  0  0  0  0  0  0  0  0  0  0  0
    9.5310   47.0990   52.2410 C   0  0  0  0  0  0  0  0  0  0  0  0
    9.1970   46.9670   53.5980 C   0  0  0  0  0  0  0  0  0  0  0  0
   10.2380   47.2080   54.6620 C   0  0  0  0  0  0  0  0  0  0  0  0
    9.7780   48.2730   55.6570 C   0  0  0  0  0  0  0  0  0  0  0  0
   10.5210   48.1800   56.8410 O   0  0  0  0  0  0  0  0  0  0  0  0
    7.9030   46.5520   53.9520 C   0  0  0  0  0  0  0  0  0  0  0  0
    3.4550   45.9780   54.6010 C   0  0  0  0  0  0  0  0  0  0  0  0
    3.3020   45.3050   55.8120 C   0  0  0  0  0  0  0  0  0  0  0  0
    2.1010   44.6870   55.8650 N   0  0  0  0  0  0  0  0  0  0  0  0
    1.4980   44.9690   54.7010 C   0  0  0  0  0  0  0  0  0  0  0  0
    0.2850   44.5100   54.3090 N   0  0  0  0  0  0  0  0  0  0  0  0
   -0.1840   44.8740   53.0820 C   0  0  0  0  0  0  0  0  0  0  0  0
    0.5480   45.7060   52.2790 N   0  0  0  0  0  0  0  0  0  0  0  0
    1.7670   46.1860   52.6640 C   0  0  0  0  0  0  0  0  0  0  0  0
    2.4220   47.1030   51.8460 O   0  0  0  0  0  0  0  0  0  0  0  0
    2.2720   45.7660   53.9030 C   0  0  0  0  0  0  0  0  0  0  0  0
    5.2700   44.9700   52.8670 H   0  0  0  0  0  0  0  0  0  0  0  0
    6.5526   46.2087   50.8266 H   0  0  0  0  0  0  0  0  0  0  0  0
    8.8500   46.9349   50.1913 H   0  0  0  0  0  0  0  0  0  0  0  0
   10.5448   47.4157   51.9548 H   0  0  0  0  0  0  0  0  0  0  0  0
   10.4221   46.2680   55.2027 H   0  0  0  0  0  0  0  0  0  0  0  0
   11.1579   47.5626   54.1741 H   0  0  0  0  0  0  0  0  0  0  0  0
    9.9217   49.2699   55.2149 H   0  0  0  0  0  0  0  0  0  0  0  0
    8.7140   48.1147   55.8868 H   0  0  0  0  0  0  0  0  0  0  0  0
    9.8980   47.8310   57.5300 H   0  0  0  0  0  0  0  0  0  0  0  0
    7.6432   46.4213   55.0129 H   0  0  0  0  0  0  0  0  0  0  0  0
    4.0547   45.2802   56.6138 H   0  0  0  0  0  0  0  0  0  0  0  0
    1.7350   44.0890   56.6390 H   0  0  0  0  0  0  0  0  0  0  0  0
   -1.1572   44.4965   52.7350 H   0  0  0  0  0  0  0  0  0  0  0  0
    2.8110   47.9660   52.1960 H   0  0  0  0  0  0  0  0  0  0  0  0
  1  2  2  0
  2  3  1  0
  3  4  1  0
  4  5  2  0
  5  6  1  0
  6  7  2  0
  7  8  1  0
  8  9  1  0
  9 10  1  0
 10 11  1  0
  8 12  2  0
  2 13  1  0
 13 14  2  0
 14 15  1  0
 15 16  1  0
 16 17  2  0
 17 18  1  0
 18 19  2  0
 19 20  1  0
 20 21  1  0
 20 22  2  0
 12  4  1  0
 22 13  1  0
 22 16  1  0
  3 23  1  0
  5 24  1  0
  6 25  1  0
  7 26  1  0
  9 27  1  0
  9 28  1  0
 10 29  1  0
 10 30  1  0
 11 31  1  0
 12 32  1  0
 14 33  1  0
 15 34  1  0
 18 35  1  0
 21 36  1  0
M  END
>  <meeko>  (1) 
{"is_sidechain": [false], "free_energy": -8.605, "intermolecular_energy": -11.12, "internal_energy": -0.449}

$$$$
ligand_5_conformer_3_docked
     RDKit          3D

 36 38  0  0  0  0  0  0  0  0999 V2000
    5.8940   44.6280   53.6730 O   0  0  0  0  0  0  0  0  0  0  0  0
    5.7630   44.5660   52.4200 C   0  0  0  0  0  0  0  0  0  0  0  0
    6.6370   45.3160   51.5610 N   0  0  0  0  0  0  0  0  0  0  0  0
    7.8630   45.9260   51.9980 C   0  0  0  0  0  0  0  0  0  0  0  0
    9.0340   45.7270   51.2520 C   0  0  0  0  0  0  0  0  0  0  0  0
   10.2440   46.2850   51.6710 C   0  0  0  0  0  0  0  0  0  0  0  0
   10.2990   47.0390   52.8450 C   0  0  0  0  0  0  0  0  0  0  0  0
    9.1410   47.2400   53.6120 C   0  0  0  0  0  0  0  0  0  0  0  0
    9.2130   48.0100   54.9050 C   0  0  0  0  0  0  0  0  0  0  0  0
   10.4400   47.6090   55.7230 C   0  0  0  0  0  0  0  0  0  0  0  0
   10.4410   48.2790   56.9530 O   0  0  0  0  0  0  0  0  0  0  0  0
    7.9290   46.6680   53.1930 C   0  0  0  0  0  0  0  0  0  0  0  0
    4.6420   43.8010   51.8500 C   0  0  0  0  0  0  0  0  0  0  0  0
    3.3400   43.8050   52.3480 C   0  0  0  0  0  0  0  0  0  0  0  0
    2.5920   42.8620   51.7320 N   0  0  0  0  0  0  0  0  0  0  0  0
    3.4110   42.2710   50.8500 C   0  0  0  0  0  0  0  0  0  0  0  0
    3.0840   41.2320   50.0440 N   0  0  0  0  0  0  0  0  0  0  0  0
    4.0400   40.7270   49.2120 C   0  0  0  0  0  0  0  0  0  0  0  0
    5.2910   41.2810   49.1770 N   0  0  0  0  0  0  0  0  0  0  0  0
    5.6320   42.3360   49.9740 C   0  0  0  0  0  0  0  0  0  0  0  0
    6.8890   42.9160   49.8270 O   0  0  0  0  0  0  0  0  0  0  0  0
    4.6650   42.8160   50.8690 C   0  0  0  0  0  0  0  0  0  0  0  0
    6.3400   45.4750   50.5720 H   0  0  0  0  0  0  0  0  0  0  0  0
    8.9992   45.1273   50.3305 H   0  0  0  0  0  0  0  0  0  0  0  0
   11.1554   46.1301   51.0749 H   0  0  0  0  0  0  0  0  0  0  0  0
   11.2541   47.4773   53.1701 H   0  0  0  0  0  0  0  0  0  0  0  0
    9.2688   49.0851   54.6791 H   0  0  0  0  0  0  0  0  0  0  0  0
    8.3130   47.7823   55.4951 H   0  0  0  0  0  0  0  0  0  0  0  0
   10.4196   46.5236   55.9004 H   0  0  0  0  0  0  0  0  0  0  0  0
   11.3481   47.8812   55.1651 H   0  0  0  0  0  0  0  0  0  0  0  0
   11.3890   48.5000   57.1450 H   0  0  0  0  0  0  0  0  0  0  0  0
    7.0235   46.8006   53.8033 H   0  0  0  0  0  0  0  0  0  0  0  0
    2.9721   44.4816   53.1334 H   0  0  0  0  0  0  0  0  0  0  0  0
    1.5940   42.6250   51.9270 H   0  0  0  0  0  0  0  0  0  0  0  0
    3.8039   39.8691   48.5652 H   0  0  0  0  0  0  0  0  0  0  0  0
    7.7460   42.4170   50.0140 H   0  0  0  0  0  0  0  0  0  0  0  0
  1  2  2  0
  2  3  1  0
  3  4  1  0
  4  5  2  0
  5  6  1  0
  6  7  2  0
  7  8  1  0
  8  9  1  0
  9 10  1  0
 10 11  1  0
  8 12  2  0
  2 13  1  0
 13 14  2  0
 14 15  1  0
 15 16  1  0
 16 17  2  0
 17 18  1  0
 18 19  2  0
 19 20  1  0
 20 21  1  0
 20 22  2  0
 12  4  1  0
 22 13  1  0
 22 16  1  0
  3 23  1  0
  5 24  1  0
  6 25  1  0
  7 26  1  0
  9 27  1  0
  9 28  1  0
 10 29  1  0
 10 30  1  0
 11 31  1  0
 12 32  1  0
 14 33  1  0
 15 34  1  0
 18 35  1  0
 21 36  1  0
M  END
>  <meeko>  (2) 
{"is_sidechain": [false], "free_energy": -8.564, "intermolecular_energy": -11.198, "internal_energy": -0.32}

$$$$
ligand_5_conformer_3_docked
     RDKit          3D

 36 38  0  0  0  0  0  0  0  0999 V2000
    5.6270   44.5480   53.3090 O   0  0  0  0  0  0  0  0  0  0  0  0
    5.1450   45.5490   52.7130 C   0  0  0  0  0  0  0  0  0  0  0  0
    5.9890   46.6570   52.3580 N   0  0  0  0  0  0  0  0  0  0  0  0
    7.4260   46.6070   52.3660 C   0  0  0  0  0  0  0  0  0  0  0  0
    8.1030   46.1490   51.2270 C   0  0  0  0  0  0  0  0  0  0  0  0
    9.4980   46.0630   51.2190 C   0  0  0  0  0  0  0  0  0  0  0  0
   10.2280   46.4230   52.3530 C   0  0  0  0  0  0  0  0  0  0  0  0
    9.5680   46.8720   53.5070 C   0  0  0  0  0  0  0  0  0  0  0  0
   10.3550   47.2110   54.7470 C   0  0  0  0  0  0  0  0  0  0  0  0
    9.6360   48.2630   55.5910 C   0  0  0  0  0  0  0  0  0  0  0  0
   10.2820   48.4180   56.8240 O   0  0  0  0  0  0  0  0  0  0  0  0
    8.1660   46.9460   53.5140 C   0  0  0  0  0  0  0  0  0  0  0  0
    3.6940   45.6190   52.4770 C   0  0  0  0  0  0  0  0  0  0  0  0
    2.8700   46.6650   52.8900 C   0  0  0  0  0  0  0  0  0  0  0  0
    1.5690   46.3500   52.6980 N   0  0  0  0  0  0  0  0  0  0  0  0
    1.5700   45.1190   52.1650 C   0  0  0  0  0  0  0  0  0  0  0  0
    0.4690   44.3940   51.8520 N   0  0  0  0  0  0  0  0  0  0  0  0
    0.6390   43.1440   51.3330 C   0  0  0  0  0  0  0  0  0  0  0  0
    1.8950   42.6520   51.1090 N   0  0  0  0  0  0  0  0  0  0  0  0
    3.0150   43.3750   51.4070 C   0  0  0  0  0  0  0  0  0  0  0  0
    4.2630   42.8590   51.0700 O   0  0  0  0  0  0  0  0  0  0  0  0
    2.8380   44.6360   51.9930 C   0  0  0  0  0  0  0  0  0  0  0  0
    5.5350   47.5710   52.1330 H   0  0  0  0  0  0  0  0  0  0  0  0
    7.5324   45.8553   50.3336 H   0  0  0  0  0  0  0  0  0  0  0  0
   10.0214   45.7111   50.3178 H   0  0  0  0  0  0  0  0  0  0  0  0
   11.3258   46.3544   52.3419 H   0  0  0  0  0  0  0  0  0  0  0  0
   10.4875   46.2991   55.3477 H   0  0  0  0  0  0  0  0  0  0  0  0
   11.3289   47.6193   54.4392 H   0  0  0  0  0  0  0  0  0  0  0  0
    9.6403   49.2237   55.0552 H   0  0  0  0  0  0  0  0  0  0  0  0
    8.6006   47.9357   55.7669 H   0  0  0  0  0  0  0  0  0  0  0  0
    9.9380   47.6930   57.4070 H   0  0  0  0  0  0  0  0  0  0  0  0
    7.6416   47.2717   54.4244 H   0  0  0  0  0  0  0  0  0  0  0  0
    3.2285   47.6149   53.3134 H   0  0  0  0  0  0  0  0  0  0  0  0
    0.7380   46.9330   52.9440 H   0  0  0  0  0  0  0  0  0  0  0  0
   -0.2400   42.5278   51.0931 H   0  0  0  0  0  0  0  0  0  0  0  0
    4.4960   42.5600   50.1340 H   0  0  0  0  0  0  0  0  0  0  0  0
  1  2  2  0
  2  3  1  0
  3  4  1  0
  4  5  2  0
  5  6  1  0
  6  7  2  0
  7  8  1  0
  8  9  1  0
  9 10  1  0
 10 11  1  0
  8 12  2  0
  2 13  1  0
 13 14  2  0
 14 15  1  0
 15 16  1  0
 16 17  2  0
 17 18  1  0
 18 19  2  0
 19 20  1  0
 20 21  1  0
 20 22  2  0
 12  4  1  0
 22 13  1  0
 22 16  1  0
  3 23  1  0
  5 24  1  0
  6 25  1  0
  7 26  1  0
  9 27  1  0
  9 28  1  0
 10 29  1  0
 10 30  1  0
 11 31  1  0
 12 32  1  0
 14 33  1  0
 15 34  1  0
 18 35  1  0
 21 36  1  0
M  END
>  <meeko>  (3) 
{"is_sidechain": [false], "free_energy": -8.515, "intermolecular_energy": -10.798, "internal_energy": -0.656}

$$$$
ligand_5_conformer_3_docked
     RDKit          3D

 36 38  0  0  0  0  0  0  0  0999 V2000
    5.5800   44.5940   53.9520 O   0  0  0  0  0  0  0  0  0  0  0  0
    5.0540   45.2000   52.9780 C   0  0  0  0  0  0  0  0  0  0  0  0
    5.7520   46.2770   52.3320 N   0  0  0  0  0  0  0  0  0  0  0  0
    7.1520   46.5510   52.5150 C   0  0  0  0  0  0  0  0  0  0  0  0
    8.0790   46.0210   51.6050 C   0  0  0  0  0  0  0  0  0  0  0  0
    9.4470   46.2470   51.7770 C   0  0  0  0  0  0  0  0  0  0  0  0
    9.9030   46.9960   52.8630 C   0  0  0  0  0  0  0  0  0  0  0  0
    8.9920   47.5240   53.7910 C   0  0  0  0  0  0  0  0  0  0  0  0
    9.4890   48.2880   54.9910 C   0  0  0  0  0  0  0  0  0  0  0  0
   10.5930   47.5220   55.7180 C   0  0  0  0  0  0  0  0  0  0  0  0
   10.6650   47.9310   57.0560 O   0  0  0  0  0  0  0  0  0  0  0  0
    7.6190   47.2850   53.6210 C   0  0  0  0  0  0  0  0  0  0  0  0
    3.6780   44.8640   52.5770 C   0  0  0  0  0  0  0  0  0  0  0  0
    3.2500   44.7010   51.2600 C   0  0  0  0  0  0  0  0  0  0  0  0
    1.9040   44.5890   51.2080 N   0  0  0  0  0  0  0  0  0  0  0  0
    1.4840   44.6760   52.4790 C   0  0  0  0  0  0  0  0  0  0  0  0
    0.1930   44.6570   52.8870 N   0  0  0  0  0  0  0  0  0  0  0  0
   -0.0720   44.7750   54.2190 C   0  0  0  0  0  0  0  0  0  0  0  0
    0.9510   44.8830   55.1220 N   0  0  0  0  0  0  0  0  0  0  0  0
    2.2590   44.8910   54.7280 C   0  0  0  0  0  0  0  0  0  0  0  0
    3.2570   44.9080   55.6990 O   0  0  0  0  0  0  0  0  0  0  0  0
    2.5260   44.8260   53.3530 C   0  0  0  0  0  0  0  0  0  0  0  0
    5.2010   46.9350   51.7370 H   0  0  0  0  0  0  0  0  0  0  0  0
    7.7267   45.4239   50.7510 H   0  0  0  0  0  0  0  0  0  0  0  0
   10.1664   45.8337   51.0548 H   0  0  0  0  0  0  0  0  0  0  0  0
   10.9809   47.1732   52.9921 H   0  0  0  0  0  0  0  0  0  0  0  0
    9.8854   49.2588   54.6588 H   0  0  0  0  0  0  0  0  0  0  0  0
    8.6481   48.4285   55.6861 H   0  0  0  0  0  0  0  0  0  0  0  0
   10.3743   46.4447   55.6786 H   0  0  0  0  0  0  0  0  0  0  0  0
   11.5557   47.7279   55.2274 H   0  0  0  0  0  0  0  0  0  0  0  0
   10.7640   48.9180   57.0370 H   0  0  0  0  0  0  0  0  0  0  0  0
    6.9022   47.6749   54.3587 H   0  0  0  0  0  0  0  0  0  0  0  0
    3.9155   44.6681   50.3847 H   0  0  0  0  0  0  0  0  0  0  0  0
    1.3140   44.4880   50.3530 H   0  0  0  0  0  0  0  0  0  0  0  0
   -1.1144   44.7835   54.5703 H   0  0  0  0  0  0  0  0  0  0  0  0
    3.5850   45.7600   56.1300 H   0  0  0  0  0  0  0  0  0  0  0  0
  1  2  2  0
  2  3  1  0
  3  4  1  0
  4  5  2  0
  5  6  1  0
  6  7  2  0
  7  8  1  0
  8  9  1  0
  9 10  1  0
 10 11  1  0
  8 12  2  0
  2 13  1  0
 13 14  2  0
 14 15  1  0
 15 16  1  0
 16 17  2  0
 17 18  1  0
 18 19  2  0
 19 20  1  0
 20 21  1  0
 20 22  2  0
 12  4  1  0
 22 13  1  0
 22 16  1  0
  3 23  1  0
  5 24  1  0
  6 25  1  0
  7 26  1  0
  9 27  1  0
  9 28  1  0
 10 29  1  0
 10 30  1  0
 11 31  1  0
 12 32  1  0
 14 33  1  0
 15 34  1  0
 18 35  1  0
 21 36  1  0
M  END
>  <meeko>  (4) 
{"is_sidechain": [false], "free_energy": -8.446, "intermolecular_energy": -10.725, "internal_energy": -0.639}

$$$$
ligand_5_conformer_3_docked
     RDKit          3D

 36 38  0  0  0  0  0  0  0  0999 V2000
    5.0130   44.4870   54.3840 O   0  0  0  0  0  0  0  0  0  0  0  0
    4.1530   44.7040   53.4880 C   0  0  0  0  0  0  0  0  0  0  0  0
    4.4870   45.5040   52.3410 N   0  0  0  0  0  0  0  0  0  0  0  0
    5.8310   45.8520   51.9700 C   0  0  0  0  0  0  0  0  0  0  0  0
    6.4000   45.2710   50.8270 C   0  0  0  0  0  0  0  0  0  0  0  0
    7.7150   45.5710   50.4610 C   0  0  0  0  0  0  0  0  0  0  0  0
    8.4770   46.4450   51.2380 C   0  0  0  0  0  0  0  0  0  0  0  0
    7.9300   47.0270   52.3910 C   0  0  0  0  0  0  0  0  0  0  0  0
    8.7710   47.9290   53.2570 C   0  0  0  0  0  0  0  0  0  0  0  0
    9.8710   47.1450   53.9720 C   0  0  0  0  0  0  0  0  0  0  0  0
    9.8980   47.4820   55.3320 O   0  0  0  0  0  0  0  0  0  0  0  0
    6.6120   46.7140   52.7620 C   0  0  0  0  0  0  0  0  0  0  0  0
    2.7750   44.2220   53.6770 C   0  0  0  0  0  0  0  0  0  0  0  0
    2.0930   43.3910   52.7900 C   0  0  0  0  0  0  0  0  0  0  0  0
    0.7930   43.2820   53.1420 N   0  0  0  0  0  0  0  0  0  0  0  0
    0.6530   44.0340   54.2440 C   0  0  0  0  0  0  0  0  0  0  0  0
   -0.5060   44.2480   54.9120 N   0  0  0  0  0  0  0  0  0  0  0  0
   -0.4860   45.0570   56.0090 C   0  0  0  0  0  0  0  0  0  0  0  0
    0.6880   45.6150   56.4370 N   0  0  0  0  0  0  0  0  0  0  0  0
    1.8670   45.4000   55.7830 C   0  0  0  0  0  0  0  0  0  0  0  0
    3.0430   45.9170   56.3190 O   0  0  0  0  0  0  0  0  0  0  0  0
    1.8330   44.6130   54.6220 C   0  0  0  0  0  0  0  0  0  0  0  0
    3.7060   45.9020   51.7730 H   0  0  0  0  0  0  0  0  0  0  0  0
    5.8075   44.5750   50.2150 H   0  0  0  0  0  0  0  0  0  0  0  0
    8.1505   45.1173   49.5585 H   0  0  0  0  0  0  0  0  0  0  0  0
    9.5112   46.6784   50.9448 H   0  0  0  0  0  0  0  0  0  0  0  0
    9.2342   48.7017   52.6258 H   0  0  0  0  0  0  0  0  0  0  0  0
    8.1202   48.3858   54.0171 H   0  0  0  0  0  0  0  0  0  0  0  0
    9.6756   46.0675   53.8682 H   0  0  0  0  0  0  0  0  0  0  0  0
   10.8423   47.3951   53.5203 H   0  0  0  0  0  0  0  0  0  0  0  0
    9.8880   48.4730   55.3700 H   0  0  0  0  0  0  0  0  0  0  0  0
    6.1866   47.1464   53.6796 H   0  0  0  0  0  0  0  0  0  0  0  0
    2.5502   42.8924   51.9226 H   0  0  0  0  0  0  0  0  0  0  0  0
    0.0470   42.7500   52.6410 H   0  0  0  0  0  0  0  0  0  0  0  0
   -1.4194   45.2626   56.5536 H   0  0  0  0  0  0  0  0  0  0  0  0
    3.8800   45.3640   56.4350 H   0  0  0  0  0  0  0  0  0  0  0  0
  1  2  2  0
  2  3  1  0
  3  4  1  0
  4  5  2  0
  5  6  1  0
  6  7  2  0
  7  8  1  0
  8  9  1  0
  9 10  1  0
 10 11  1  0
  8 12  2  0
  2 13  1  0
 13 14  2  0
 14 15  1  0
 15 16  1  0
 16 17  2  0
 17 18  1  0
 18 19  2  0
 19 20  1  0
 20 21  1  0
 20 22  2  0
 12  4  1  0
 22 13  1  0
 22 16  1  0
  3 23  1  0
  5 24  1  0
  6 25  1  0
  7 26  1  0
  9 27  1  0
  9 28  1  0
 10 29  1  0
 10 30  1  0
 11 31  1  0
 12 32  1  0
 14 33  1  0
 15 34  1  0
 18 35  1  0
 21 36  1  0
M  END
>  <meeko>  (5) 
{"is_sidechain": [false], "free_energy": -8.228, "intermolecular_energy": -10.551, "internal_energy": -0.531}

$$$$
