MODEL 1
REMARK VINA RESULT:    -8.990      0.000      0.000
REMARK INTER + INTRA:         -12.251
REMARK INTER:                 -12.669
REMARK INTRA:                   0.417
REMARK UNBOUND:                 0.417
REMARK SMILES CC(=O)OCC(=O)N1CCn2ncc([S@](C)(=O)=NC(=O)[C@H]3CC3(C)C)c2C1
REMARK SMILES IDX 8 1 9 2 10 3 11 4 12 5 13 6 14 7 26 8 27 9 6 10 7 11 5 12
REMARK SMILES IDX 4 13 2 14 3 15 1 16 15 17 17 18 18 19 16 20 19 21 20 22
REMARK SMILES IDX 21 23 22 24 23 25 24 26 25 27
REMARK H PARENT
ROOT
ATOM      1  N   UNL     1       3.313  42.485  51.169  1.00  0.00    -0.332 N 
ATOM      2  C   UNL     1       1.858  42.237  51.277  1.00  0.00     0.143 C 
ATOM      3  C   UNL     1       1.061  43.547  51.253  1.00  0.00     0.166 C 
ATOM      4  N   UNL     1       1.645  44.486  52.196  1.00  0.00    -0.265 N 
ATOM      5  N   UNL     1       0.997  45.467  52.804  1.00  0.00    -0.180 NA
ATOM      6  C   UNL     1       1.902  46.152  53.535  1.00  0.00     0.154 A 
ATOM      7  C   UNL     1       3.153  45.584  53.364  1.00  0.00     0.091 A 
ATOM      8  C   UNL     1       2.948  44.530  52.501  1.00  0.00     0.075 A 
ATOM      9  C   UNL     1       3.955  43.589  51.914  1.00  0.00     0.176 C 
ENDROOT
BRANCH   1  10
ATOM     10  C   UNL     1       4.181  41.523  50.525  1.00  0.00     0.261 C 
ATOM     11  O   UNL     1       3.677  40.528  49.935  1.00  0.00    -0.271 OA
BRANCH  10  12
ATOM     12  C   UNL     1       5.679  41.667  50.521  1.00  0.00     0.332 C 
BRANCH  12  13
ATOM     13  O   UNL     1       6.109  42.465  49.420  1.00  0.00    -0.456 OA
BRANCH  13  14
ATOM     14  C   UNL     1       6.845  43.646  49.568  1.00  0.00     0.303 C 
ATOM     15  O   UNL     1       6.302  44.694  50.011  1.00  0.00    -0.253 OA
ATOM     16  C   UNL     1       8.276  43.674  49.156  1.00  0.00     0.139 C 
ENDBRANCH  13  14
ENDBRANCH  12  13
ENDBRANCH  10  12
ENDBRANCH   1  10
BRANCH   7  17
ATOM     17  S   UNL     1       4.662  46.111  54.090  1.00  0.00     0.083 S 
ATOM     18  O   UNL     1       4.446  47.431  54.777  1.00  0.00    -0.244 OA
ATOM     19  N   UNL     1       5.739  46.286  52.956  1.00  0.00    -0.157 NA
ATOM     20  C   UNL     1       5.215  44.889  55.263  1.00  0.00     0.140 C 
BRANCH  19  21
ATOM     21  C   UNL     1       7.049  46.819  53.185  1.00  0.00     0.257 C 
ATOM     22  O   UNL     1       7.333  47.388  54.274  1.00  0.00    -0.272 OA
BRANCH  21  23
ATOM     23  C   UNL     1       8.111  46.662  52.138  1.00  0.00     0.088 C 
ATOM     24  C   UNL     1       8.834  47.958  51.753  1.00  0.00     0.021 C 
ATOM     25  C   UNL     1       9.561  46.897  52.573  1.00  0.00    -0.023 C 
ATOM     26  C   UNL     1       9.866  47.286  54.029  1.00  0.00     0.012 C 
ATOM     27  C   UNL     1      10.627  46.098  51.818  1.00  0.00     0.012 C 
ENDBRANCH  21  23
ENDBRANCH  19  21
ENDBRANCH   7  17
TORSDOF 7
ENDMDL
MODEL 2
REMARK VINA RESULT:    -8.774      3.241      6.080
REMARK INTER + INTRA:         -11.948
REMARK INTER:                 -12.444
REMARK INTRA:                   0.496
REMARK UNBOUND:                 0.417
REMARK SMILES CC(=O)OCC(=O)N1CCn2ncc([S@](C)(=O)=NC(=O)[C@H]3CC3(C)C)c2C1
REMARK SMILES IDX 8 1 9 2 10 3 11 4 12 5 13 6 14 7 26 8 27 9 6 10 7 11 5 12
REMARK SMILES IDX 4 13 2 14 3 15 1 16 15 17 17 18 18 19 16 20 19 21 20 22
REMARK SMILES IDX 21 23 22 24 23 25 24 26 25 27
REMARK H PARENT
ROOT
ATOM      1  N   UNL     1       0.115  44.490  55.320  1.00  0.00    -0.332 N 
ATOM      2  C   UNL     1      -0.591  43.724  54.268  1.00  0.00     0.143 C 
ATOM      3  C   UNL     1       0.320  42.663  53.638  1.00  0.00     0.166 C 
ATOM      4  N   UNL     1       1.591  43.269  53.278  1.00  0.00    -0.265 N 
ATOM      5  N   UNL     1       2.397  42.846  52.316  1.00  0.00    -0.180 NA
ATOM      6  C   UNL     1       3.500  43.625  52.348  1.00  0.00     0.154 A 
ATOM      7  C   UNL     1       3.378  44.549  53.372  1.00  0.00     0.091 A 
ATOM      8  C   UNL     1       2.152  44.287  53.942  1.00  0.00     0.075 A 
ATOM      9  C   UNL     1       1.512  44.937  55.130  1.00  0.00     0.176 C 
ENDROOT
BRANCH   1  10
ATOM     10  C   UNL     1      -0.606  45.021  56.456  1.00  0.00     0.261 C 
ATOM     11  O   UNL     1      -1.328  44.253  57.150  1.00  0.00    -0.271 OA
BRANCH  10  12
ATOM     12  C   UNL     1      -0.522  46.470  56.855  1.00  0.00     0.332 C 
BRANCH  12  13
ATOM     13  O   UNL     1      -0.718  46.621  58.260  1.00  0.00    -0.456 OA
BRANCH  13  14
ATOM     14  C   UNL     1      -0.040  47.572  59.032  1.00  0.00     0.303 C 
ATOM     15  O   UNL     1       1.219  47.570  59.100  1.00  0.00    -0.253 OA
ATOM     16  C   UNL     1      -0.820  48.571  59.815  1.00  0.00     0.139 C 
ENDBRANCH  13  14
ENDBRANCH  12  13
ENDBRANCH  10  12
ENDBRANCH   1  10
BRANCH   7  17
ATOM     17  S   UNL     1       4.545  45.777  53.833  1.00  0.00     0.083 S 
ATOM     18  O   UNL     1       3.848  47.105  53.942  1.00  0.00    -0.244 OA
ATOM     19  N   UNL     1       5.659  45.864  52.724  1.00  0.00    -0.157 NA
ATOM     20  C   UNL     1       5.282  45.340  55.395  1.00  0.00     0.140 C 
BRANCH  19  21
ATOM     21  C   UNL     1       6.701  46.846  52.726  1.00  0.00     0.257 C 
ATOM     22  O   UNL     1       6.664  47.825  53.519  1.00  0.00    -0.272 OA
BRANCH  21  23
ATOM     23  C   UNL     1       7.875  46.689  51.807  1.00  0.00     0.088 C 
ATOM     24  C   UNL     1       8.691  47.965  51.578  1.00  0.00     0.021 C 
ATOM     25  C   UNL     1       9.270  46.835  52.422  1.00  0.00    -0.023 C 
ATOM     26  C   UNL     1       9.412  47.142  53.922  1.00  0.00     0.012 C 
ATOM     27  C   UNL     1      10.387  46.023  51.760  1.00  0.00     0.012 C 
ENDBRANCH  21  23
ENDBRANCH  19  21
ENDBRANCH   7  17
TORSDOF 7
ENDMDL
MODEL 3
REMARK VINA RESULT:    -8.713      3.759      6.250
REMARK INTER + INTRA:         -11.861
REMARK INTER:                 -12.185
REMARK INTRA:                   0.323
REMARK UNBOUND:                 0.417
REMARK SMILES CC(=O)OCC(=O)N1CCn2ncc([S@](C)(=O)=NC(=O)[C@H]3CC3(C)C)c2C1
REMARK SMILES IDX 8 1 9 2 10 3 11 4 12 5 13 6 14 7 26 8 27 9 6 10 7 11 5 12
REMARK SMILES IDX 4 13 2 14 3 15 1 16 15 17 17 18 18 19 16 20 19 21 20 22
REMARK SMILES IDX 21 23 22 24 23 25 24 26 25 27
REMARK H PARENT
ROOT
ATOM      1  N   UNL     1       0.277  44.538  55.391  1.00  0.00    -0.332 N 
ATOM      2  C   UNL     1      -0.458  43.771  54.359  1.00  0.00     0.143 C 
ATOM      3  C   UNL     1       0.439  42.721  53.694  1.00  0.00     0.166 C 
ATOM      4  N   UNL     1       1.693  43.339  53.294  1.00  0.00    -0.265 N 
ATOM      5  N   UNL     1       2.469  42.927  52.304  1.00  0.00    -0.180 NA
ATOM      6  C   UNL     1       3.566  43.714  52.303  1.00  0.00     0.154 A 
ATOM      7  C   UNL     1       3.472  44.633  53.335  1.00  0.00     0.091 A 
ATOM      8  C   UNL     1       2.268  44.358  53.944  1.00  0.00     0.075 A 
ATOM      9  C   UNL     1       1.663  44.997  55.157  1.00  0.00     0.176 C 
ENDROOT
BRANCH   1  10
ATOM     10  C   UNL     1      -0.410  45.058  56.553  1.00  0.00     0.261 C 
ATOM     11  O   UNL     1       0.259  45.428  57.557  1.00  0.00    -0.271 OA
BRANCH  10  12
ATOM     12  C   UNL     1      -1.908  45.187  56.612  1.00  0.00     0.332 C 
BRANCH  12  13
ATOM     13  O   UNL     1      -2.429  44.533  57.768  1.00  0.00    -0.456 OA
BRANCH  13  14
ATOM     14  C   UNL     1      -2.934  43.229  57.750  1.00  0.00     0.303 C 
ATOM     15  O   UNL     1      -2.928  42.548  56.689  1.00  0.00    -0.253 OA
ATOM     16  C   UNL     1      -3.525  42.654  58.992  1.00  0.00     0.139 C 
ENDBRANCH  13  14
ENDBRANCH  12  13
ENDBRANCH  10  12
ENDBRANCH   1  10
BRANCH   7  17
ATOM     17  S   UNL     1       4.644  45.868  53.762  1.00  0.00     0.083 S 
ATOM     18  O   UNL     1       3.956  47.204  53.816  1.00  0.00    -0.244 OA
ATOM     19  N   UNL     1       5.768  45.907  52.662  1.00  0.00    -0.157 NA
ATOM     20  C   UNL     1       5.363  45.482  55.346  1.00  0.00     0.140 C 
BRANCH  19  21
ATOM     21  C   UNL     1       6.818  46.881  52.639  1.00  0.00     0.257 C 
ATOM     22  O   UNL     1       6.798  47.871  53.418  1.00  0.00    -0.272 OA
BRANCH  21  23
ATOM     23  C   UNL     1       7.980  46.701  51.708  1.00  0.00     0.088 C 
ATOM     24  C   UNL     1       8.900  47.921  51.581  1.00  0.00     0.021 C 
ATOM     25  C   UNL     1       9.379  46.683  52.331  1.00  0.00    -0.023 C 
ATOM     26  C   UNL     1       9.538  46.856  53.851  1.00  0.00     0.012 C 
ATOM     27  C   UNL     1      10.429  45.838  51.605  1.00  0.00     0.012 C 
ENDBRANCH  21  23
ENDBRANCH  19  21
ENDBRANCH   7  17
TORSDOF 7
ENDMDL
MODEL 4
REMARK VINA RESULT:    -8.593      1.356      1.743
REMARK INTER + INTRA:         -11.692
REMARK INTER:                 -12.206
REMARK INTRA:                   0.514
REMARK UNBOUND:                 0.417
REMARK SMILES CC(=O)OCC(=O)N1CCn2ncc([S@](C)(=O)=NC(=O)[C@H]3CC3(C)C)c2C1
REMARK SMILES IDX 8 1 9 2 10 3 11 4 12 5 13 6 14 7 26 8 27 9 6 10 7 11 5 12
REMARK SMILES IDX 4 13 2 14 3 15 1 16 15 17 17 18 18 19 16 20 19 21 20 22
REMARK SMILES IDX 21 23 22 24 23 25 24 26 25 27
REMARK H PARENT
ROOT
ATOM      1  N   UNL     1       4.976  42.211  50.470  1.00  0.00    -0.332 N 
ATOM      2  C   UNL     1       3.864  41.234  50.512  1.00  0.00     0.143 C 
ATOM      3  C   UNL     1       2.512  41.929  50.705  1.00  0.00     0.166 C 
ATOM      4  N   UNL     1       2.606  42.874  51.805  1.00  0.00    -0.265 N 
ATOM      5  N   UNL     1       1.597  43.271  52.565  1.00  0.00    -0.180 NA
ATOM      6  C   UNL     1       2.079  44.200  53.418  1.00  0.00     0.154 A 
ATOM      7  C   UNL     1       3.427  44.394  53.168  1.00  0.00     0.091 A 
ATOM      8  C   UNL     1       3.723  43.536  52.132  1.00  0.00     0.075 A 
ATOM      9  C   UNL     1       5.020  43.355  51.405  1.00  0.00     0.176 C 
ENDROOT
BRANCH   1  10
ATOM     10  C   UNL     1       6.160  41.949  49.681  1.00  0.00     0.261 C 
ATOM     11  O   UNL     1       6.848  40.918  49.915  1.00  0.00    -0.271 OA
BRANCH  10  12
ATOM     12  C   UNL     1       6.605  42.863  48.572  1.00  0.00     0.332 C 
BRANCH  12  13
ATOM     13  O   UNL     1       8.003  43.130  48.664  1.00  0.00    -0.456 OA
BRANCH  13  14
ATOM     14  C   UNL     1       8.537  44.173  49.429  1.00  0.00     0.303 C 
ATOM     15  O   UNL     1       9.764  44.200  49.718  1.00  0.00    -0.253 OA
ATOM     16  C   UNL     1       7.634  45.241  49.943  1.00  0.00     0.139 C 
ENDBRANCH  13  14
ENDBRANCH  12  13
ENDBRANCH  10  12
ENDBRANCH   1  10
BRANCH   7  17
ATOM     17  S   UNL     1       4.508  45.503  53.997  1.00  0.00     0.083 S 
ATOM     18  O   UNL     1       3.728  46.706  54.451  1.00  0.00    -0.244 OA
ATOM     19  N   UNL     1       5.633  45.961  52.997  1.00  0.00    -0.157 NA
ATOM     20  C   UNL     1       5.242  44.682  55.397  1.00  0.00     0.140 C 
BRANCH  19  21
ATOM     21  C   UNL     1       6.613  46.957  53.312  1.00  0.00     0.257 C 
ATOM     22  O   UNL     1       6.527  47.634  54.370  1.00  0.00    -0.272 OA
BRANCH  21  23
ATOM     23  C   UNL     1       7.781  47.169  52.395  1.00  0.00     0.088 C 
ATOM     24  C   UNL     1       8.504  48.509  52.571  1.00  0.00     0.021 C 
ATOM     25  C   UNL     1       9.172  47.219  53.035  1.00  0.00    -0.023 C 
ATOM     26  C   UNL     1       9.315  47.064  54.557  1.00  0.00     0.012 C 
ATOM     27  C   UNL     1      10.331  46.727  52.163  1.00  0.00     0.012 C 
ENDBRANCH  21  23
ENDBRANCH  19  21
ENDBRANCH   7  17
TORSDOF 7
ENDMDL
MODEL 5
REMARK VINA RESULT:    -8.375      1.439      2.200
REMARK INTER + INTRA:         -11.385
REMARK INTER:                 -12.179
REMARK INTRA:                   0.794
REMARK UNBOUND:                 0.417
REMARK SMILES CC(=O)OCC(=O)N1CCn2ncc([S@](C)(=O)=NC(=O)[C@H]3CC3(C)C)c2C1
REMARK SMILES IDX 8 1 9 2 10 3 11 4 12 5 13 6 14 7 26 8 27 9 6 10 7 11 5 12
REMARK SMILES IDX 4 13 2 14 3 15 1 16 15 17 17 18 18 19 16 20 19 21 20 22
REMARK SMILES IDX 21 23 22 24 23 25 24 26 25 27
REMARK H PARENT
ROOT
ATOM      1  N   UNL     1       3.290  42.604  51.160  1.00  0.00    -0.332 N 
ATOM      2  C   UNL     1       1.863  42.276  51.373  1.00  0.00     0.143 C 
ATOM      3  C   UNL     1       1.006  43.543  51.483  1.00  0.00     0.166 C 
ATOM      4  N   UNL     1       1.623  44.464  52.423  1.00  0.00    -0.265 N 
ATOM      5  N   UNL     1       0.982  45.380  53.132  1.00  0.00    -0.180 NA
ATOM      6  C   UNL     1       1.913  46.074  53.822  1.00  0.00     0.154 A 
ATOM      7  C   UNL     1       3.170  45.581  53.519  1.00  0.00     0.091 A 
ATOM      8  C   UNL     1       2.943  44.560  52.622  1.00  0.00     0.075 A 
ATOM      9  C   UNL     1       3.941  43.702  51.906  1.00  0.00     0.176 C 
ENDROOT
BRANCH   1  10
ATOM     10  C   UNL     1       4.145  41.720  50.397  1.00  0.00     0.261 C 
ATOM     11  O   UNL     1       5.398  41.818  50.506  1.00  0.00    -0.271 OA
BRANCH  10  12
ATOM     12  C   UNL     1       3.594  40.667  49.474  1.00  0.00     0.332 C 
BRANCH  12  13
ATOM     13  O   UNL     1       4.290  40.667  48.229  1.00  0.00    -0.456 OA
BRANCH  13  14
ATOM     14  C   UNL     1       3.669  40.411  47.002  1.00  0.00     0.303 C 
ATOM     15  O   UNL     1       2.718  39.587  46.919  1.00  0.00    -0.253 OA
ATOM     16  C   UNL     1       4.169  41.088  45.772  1.00  0.00     0.139 C 
ENDBRANCH  13  14
ENDBRANCH  12  13
ENDBRANCH  10  12
ENDBRANCH   1  10
BRANCH   7  17
ATOM     17  S   UNL     1       4.709  46.149  54.146  1.00  0.00     0.083 S 
ATOM     18  O   UNL     1       4.501  47.459  54.854  1.00  0.00    -0.244 OA
ATOM     19  N   UNL     1       5.702  46.360  52.943  1.00  0.00    -0.157 NA
ATOM     20  C   UNL     1       5.374  44.939  55.272  1.00  0.00     0.140 C 
BRANCH  19  21
ATOM     21  C   UNL     1       7.008  46.931  53.088  1.00  0.00     0.257 C 
ATOM     22  O   UNL     1       7.319  47.576  54.124  1.00  0.00    -0.272 OA
BRANCH  21  23
ATOM     23  C   UNL     1       8.035  46.723  52.015  1.00  0.00     0.088 C 
ATOM     24  C   UNL     1       8.813  47.980  51.613  1.00  0.00     0.021 C 
ATOM     25  C   UNL     1       9.505  46.882  52.414  1.00  0.00    -0.023 C 
ATOM     26  C   UNL     1       9.865  47.252  53.862  1.00  0.00     0.012 C 
ATOM     27  C   UNL     1      10.510  46.032  51.632  1.00  0.00     0.012 C 
ENDBRANCH  21  23
ENDBRANCH  19  21
ENDBRANCH   7  17
TORSDOF 7
ENDMDL
