ligand_47_conformer_5_docked
     RDKit          3D

 43 46  0  0  0  0  0  0  0  0999 V2000
    8.1100   43.4950   48.7940 C   0  0  0  0  0  0  0  0  0  0  0  0
    6.9360   43.5950   49.6570 N   0  0  0  0  0  0  0  0  0  0  0  0
    5.9740   42.6590   49.8510 C   0  0  0  0  0  0  0  0  0  0  0  0
    5.9370   41.5650   49.2270 O   0  0  0  0  0  0  0  0  0  0  0  0
    5.0750   43.0090   50.8030 N   0  0  0  0  0  0  0  0  0  0  0  0
    3.9710   42.2030   51.3330 C   0  0  0  0  0  0  0  0  0  0  0  0
    5.5170   44.1990   51.2520 C   0  0  0  0  0  0  0  0  0  0  0  0
    5.0130   44.9820   52.2910 C   0  0  0  0  0  0  0  0  0  0  0  0
    5.6990   46.1710   52.6210 C   0  0  0  0  0  0  0  0  0  0  0  0
    5.1320   47.1380   53.9880 S   0  0  0  0  0  0  0  0  0  0  0  0
    4.6320   48.4800   53.5290 O   0  0  0  0  0  0  0  0  0  0  0  0
    6.2840   47.3490   54.9340 O   0  0  0  0  0  0  0  0  0  0  0  0
    3.8490   46.3030   54.8130 N   0  0  0  0  0  0  0  0  0  0  0  0
    2.7760   45.6700   54.1030 C   0  0  0  0  0  0  0  0  0  0  0  0
    2.0500   46.3640   53.1030 C   0  0  0  0  0  0  0  0  0  0  0  0
    1.0390   45.7130   52.3740 C   0  0  0  0  0  0  0  0  0  0  0  0
    0.7670   44.3760   52.6630 C   0  0  0  0  0  0  0  0  0  0  0  0
    1.4480   43.7130   53.6420 C   0  0  0  0  0  0  0  0  0  0  0  0
    2.4500   44.3300   54.3890 C   0  0  0  0  0  0  0  0  0  0  0  0
    1.0300   42.3700   53.7360 N   0  0  0  0  0  0  0  0  0  0  0  0
    0.0250   42.1140   52.7050 C   0  0  0  0  0  0  0  0  0  0  0  0
   -0.2290   43.4740   52.0110 C   0  0  0  0  0  0  0  0  0  0  0  0
    6.8690   46.5400   51.8930 C   0  0  0  0  0  0  0  0  0  0  0  0
    7.8550   48.1400   52.2810 Br  0  0  0  0  0  0  0  0  0  0  0  0
    7.3510   45.7170   50.8560 C   0  0  0  0  0  0  0  0  0  0  0  0
    6.6450   44.5530   50.5610 C   0  0  0  0  0  0  0  0  0  0  0  0
    9.0153   43.4179   49.4140 H   0  0  0  0  0  0  0  0  0  0  0  0
    8.0232   42.6010   48.1590 H   0  0  0  0  0  0  0  0  0  0  0  0
    8.1757   44.3908   48.1590 H   0  0  0  0  0  0  0  0  0  0  0  0
    3.9977   42.2225   52.4325 H   0  0  0  0  0  0  0  0  0  0  0  0
    3.0139   42.6163   50.9821 H   0  0  0  0  0  0  0  0  0  0  0  0
    4.0731   41.1655   50.9821 H   0  0  0  0  0  0  0  0  0  0  0  0
    4.1069   44.6815   52.8375 H   0  0  0  0  0  0  0  0  0  0  0  0
    3.9660   46.1150   55.8380 H   0  0  0  0  0  0  0  0  0  0  0  0
    2.2791   47.4197   52.8956 H   0  0  0  0  0  0  0  0  0  0  0  0
    0.4757   46.2460   51.5938 H   0  0  0  0  0  0  0  0  0  0  0  0
    2.9751   43.7819   55.1852 H   0  0  0  0  0  0  0  0  0  0  0  0
    1.4430   41.6520   54.3750 H   0  0  0  0  0  0  0  0  0  0  0  0
    0.4011   41.3785   51.9787 H   0  0  0  0  0  0  0  0  0  0  0  0
   -0.8995   41.7025   53.1364 H   0  0  0  0  0  0  0  0  0  0  0  0
   -0.0498   43.4046   50.9279 H   0  0  0  0  0  0  0  0  0  0  0  0
   -1.2658   43.8264   52.1150 H   0  0  0  0  0  0  0  0  0  0  0  0
    8.2585   45.9858   50.2956 H   0  0  0  0  0  0  0  0  0  0  0  0
  1  2  1  0
  2  3  1  0
  3  4  2  0
  3  5  1  0
  5  6  1  0
  5  7  1  0
  7  8  2  0
  8  9  1  0
  9 10  1  0
 10 11  2  0
 10 12  2  0
 10 13  1  0
 13 14  1  0
 14 15  2  0
 15 16  1  0
 16 17  2  0
 17 18  1  0
 18 19  2  0
 18 20  1  0
 20 21  1  0
 21 22  1  0
  9 23  2  0
 23 24  1  0
 23 25  1  0
 25 26  2  0
 26  2  1  0
 26  7  1  0
 19 14  1  0
 22 17  1  0
  1 27  1  0
  1 28  1  0
  1 29  1  0
  6 30  1  0
  6 31  1  0
  6 32  1  0
  8 33  1  0
 13 34  1  0
 15 35  1  0
 16 36  1  0
 19 37  1  0
 20 38  1  0
 21 39  1  0
 21 40  1  0
 22 41  1  0
 22 42  1  0
 25 43  1  0
M  END
>  <meeko>  (1) 
{"is_sidechain": [false], "free_energy": -9.38, "intermolecular_energy": -11.025, "internal_energy": 0.12}

$$$$
ligand_47_conformer_5_docked
     RDKit          3D

 43 46  0  0  0  0  0  0  0  0999 V2000
   -2.0720   43.8930   56.1360 C   0  0  0  0  0  0  0  0  0  0  0  0
   -1.5980   43.9640   54.7560 N   0  0  0  0  0  0  0  0  0  0  0  0
   -2.3270   43.7960   53.6250 C   0  0  0  0  0  0  0  0  0  0  0  0
   -3.5440   43.4720   53.6280 O   0  0  0  0  0  0  0  0  0  0  0  0
   -1.6190   44.0400   52.4940 N   0  0  0  0  0  0  0  0  0  0  0  0
   -2.1110   44.0490   51.1140 C   0  0  0  0  0  0  0  0  0  0  0  0
   -0.4050   44.4150   52.9400 C   0  0  0  0  0  0  0  0  0  0  0  0
    0.6960   44.8560   52.2070 C   0  0  0  0  0  0  0  0  0  0  0  0
    1.8480   45.2630   52.9140 C   0  0  0  0  0  0  0  0  0  0  0  0
    3.2270   45.9060   52.0150 S   0  0  0  0  0  0  0  0  0  0  0  0
    3.6300   47.2570   52.5380 O   0  0  0  0  0  0  0  0  0  0  0  0
    2.8310   46.0460   50.5690 O   0  0  0  0  0  0  0  0  0  0  0  0
    4.5780   44.8180   52.1440 N   0  0  0  0  0  0  0  0  0  0  0  0
    5.9340   45.2790   52.0620 C   0  0  0  0  0  0  0  0  0  0  0  0
    6.6180   45.3220   50.8220 C   0  0  0  0  0  0  0  0  0  0  0  0
    7.9270   45.8300   50.7470 C   0  0  0  0  0  0  0  0  0  0  0  0
    8.5330   46.2830   51.9200 C   0  0  0  0  0  0  0  0  0  0  0  0
    7.8840   46.2200   53.1190 C   0  0  0  0  0  0  0  0  0  0  0  0
    6.5900   45.7140   53.2300 C   0  0  0  0  0  0  0  0  0  0  0  0
    8.6720   46.7600   54.1550 N   0  0  0  0  0  0  0  0  0  0  0  0
    9.9230   47.2620   53.5870 C   0  0  0  0  0  0  0  0  0  0  0  0
    9.8890   46.8850   52.0860 C   0  0  0  0  0  0  0  0  0  0  0  0
    1.8600   45.2100   54.3400 C   0  0  0  0  0  0  0  0  0  0  0  0
    3.3860   45.7440   55.3730 Br  0  0  0  0  0  0  0  0  0  0  0  0
    0.7230   44.7660   55.0450 C   0  0  0  0  0  0  0  0  0  0  0  0
   -0.3930   44.3730   54.3100 C   0  0  0  0  0  0  0  0  0  0  0  0
   -1.2221   44.0203   56.8226 H   0  0  0  0  0  0  0  0  0  0  0  0
   -2.8085   44.6909   56.3122 H   0  0  0  0  0  0  0  0  0  0  0  0
   -2.5424   42.9144   56.3122 H   0  0  0  0  0  0  0  0  0  0  0  0
   -3.2108   44.0691   51.1170 H   0  0  0  0  0  0  0  0  0  0  0  0
   -1.7294   44.9403   50.5945 H   0  0  0  0  0  0  0  0  0  0  0  0
   -1.7622   43.1443   50.5945 H   0  0  0  0  0  0  0  0  0  0  0  0
    0.6677   44.8859   51.1078 H   0  0  0  0  0  0  0  0  0  0  0  0
    4.3890   43.8370   52.4630 H   0  0  0  0  0  0  0  0  0  0  0  0
    6.1215   44.9554   49.9115 H   0  0  0  0  0  0  0  0  0  0  0  0
    8.4611   45.8695   49.7862 H   0  0  0  0  0  0  0  0  0  0  0  0
    6.0917   45.6556   54.2089 H   0  0  0  0  0  0  0  0  0  0  0  0
    8.3680   46.8700   55.1500 H   0  0  0  0  0  0  0  0  0  0  0  0
    9.9863   48.3537   53.7059 H   0  0  0  0  0  0  0  0  0  0  0  0
   10.7986   46.8286   54.0925 H   0  0  0  0  0  0  0  0  0  0  0  0
   10.0059   47.7763   51.4520 H   0  0  0  0  0  0  0  0  0  0  0  0
   10.7030   46.2062   51.7916 H   0  0  0  0  0  0  0  0  0  0  0  0
    0.7172   44.7309   56.1444 H   0  0  0  0  0  0  0  0  0  0  0  0
  1  2  1  0
  2  3  1  0
  3  4  2  0
  3  5  1  0
  5  6  1  0
  5  7  1  0
  7  8  2  0
  8  9  1  0
  9 10  1  0
 10 11  2  0
 10 12  2  0
 10 13  1  0
 13 14  1  0
 14 15  2  0
 15 16  1  0
 16 17  2  0
 17 18  1  0
 18 19  2  0
 18 20  1  0
 20 21  1  0
 21 22  1  0
  9 23  2  0
 23 24  1  0
 23 25  1  0
 25 26  2  0
 26  2  1  0
 26  7  1  0
 19 14  1  0
 22 17  1  0
  1 27  1  0
  1 28  1  0
  1 29  1  0
  6 30  1  0
  6 31  1  0
  6 32  1  0
  8 33  1  0
 13 34  1  0
 15 35  1  0
 16 36  1  0
 19 37  1  0
 20 38  1  0
 21 39  1  0
 21 40  1  0
 22 41  1  0
 22 42  1  0
 25 43  1  0
M  END
>  <meeko>  (2) 
{"is_sidechain": [false], "free_energy": -9.294, "intermolecular_energy": -10.515, "internal_energy": -0.289}

$$$$
ligand_47_conformer_5_docked
     RDKit          3D

 43 46  0  0  0  0  0  0  0  0999 V2000
    9.5780   46.3650   51.5750 C   0  0  0  0  0  0  0  0  0  0  0  0
    8.4270   45.6730   51.0020 N   0  0  0  0  0  0  0  0  0  0  0  0
    8.4380   44.6880   50.0700 C   0  0  0  0  0  0  0  0  0  0  0  0
    9.4880   44.2800   49.5070 O   0  0  0  0  0  0  0  0  0  0  0  0
    7.2080   44.1690   49.8290 N   0  0  0  0  0  0  0  0  0  0  0  0
    6.8680   43.0370   48.9630 C   0  0  0  0  0  0  0  0  0  0  0  0
    6.3990   44.8330   50.6760 C   0  0  0  0  0  0  0  0  0  0  0  0
    5.0360   44.6470   50.9080 C   0  0  0  0  0  0  0  0  0  0  0  0
    4.4170   45.4290   51.9070 C   0  0  0  0  0  0  0  0  0  0  0  0
    2.7110   45.1540   52.2800 S   0  0  0  0  0  0  0  0  0  0  0  0
    2.0440   44.3520   51.1960 O   0  0  0  0  0  0  0  0  0  0  0  0
    2.0250   46.4890   52.3860 O   0  0  0  0  0  0  0  0  0  0  0  0
    2.5650   44.3040   53.7900 N   0  0  0  0  0  0  0  0  0  0  0  0
    1.4380   44.4880   54.6590 C   0  0  0  0  0  0  0  0  0  0  0  0
    1.5820   45.1160   55.9200 C   0  0  0  0  0  0  0  0  0  0  0  0
    0.4590   45.3420   56.7360 C   0  0  0  0  0  0  0  0  0  0  0  0
   -0.7910   44.9300   56.2760 C   0  0  0  0  0  0  0  0  0  0  0  0
   -0.9280   44.3040   55.0720 C   0  0  0  0  0  0  0  0  0  0  0  0
    0.1640   44.0560   54.2420 C   0  0  0  0  0  0  0  0  0  0  0  0
   -2.2800   44.0080   54.8000 N   0  0  0  0  0  0  0  0  0  0  0  0
   -3.1060   44.5230   55.8920 C   0  0  0  0  0  0  0  0  0  0  0  0
   -2.1180   45.0860   56.9430 C   0  0  0  0  0  0  0  0  0  0  0  0
    5.1870   46.3790   52.6410 C   0  0  0  0  0  0  0  0  0  0  0  0
    4.4190   47.4790   54.0130 Br  0  0  0  0  0  0  0  0  0  0  0  0
    6.5640   46.5310   52.3830 C   0  0  0  0  0  0  0  0  0  0  0  0
    7.1360   45.7410   51.3890 C   0  0  0  0  0  0  0  0  0  0  0  0
    9.5182   46.3291   52.6728 H   0  0  0  0  0  0  0  0  0  0  0  0
   10.5042   45.8739   51.2419 H   0  0  0  0  0  0  0  0  0  0  0  0
    9.5787   47.4134   51.2419 H   0  0  0  0  0  0  0  0  0  0  0  0
    6.6066   42.1667   49.5829 H   0  0  0  0  0  0  0  0  0  0  0  0
    6.0109   43.3056   48.3280 H   0  0  0  0  0  0  0  0  0  0  0  0
    7.7313   42.7889   48.3280 H   0  0  0  0  0  0  0  0  0  0  0  0
    4.4594   43.9111   50.3283 H   0  0  0  0  0  0  0  0  0  0  0  0
    3.2310   43.5150   53.9760 H   0  0  0  0  0  0  0  0  0  0  0  0
    2.5789   45.4292   56.2637 H   0  0  0  0  0  0  0  0  0  0  0  0
    0.5645   45.8326   57.7148 H   0  0  0  0  0  0  0  0  0  0  0  0
    0.0336   43.5343   53.2824 H   0  0  0  0  0  0  0  0  0  0  0  0
   -2.6380   43.5790   53.9160 H   0  0  0  0  0  0  0  0  0  0  0  0
   -3.7704   45.3197   55.5262 H   0  0  0  0  0  0  0  0  0  0  0  0
   -3.7456   43.7369   56.3197 H   0  0  0  0  0  0  0  0  0  0  0  0
   -2.3302   46.1437   57.1581 H   0  0  0  0  0  0  0  0  0  0  0  0
   -2.1781   44.5711   57.9132 H   0  0  0  0  0  0  0  0  0  0  0  0
    7.1697   47.2529   52.9505 H   0  0  0  0  0  0  0  0  0  0  0  0
  1  2  1  0
  2  3  1  0
  3  4  2  0
  3  5  1  0
  5  6  1  0
  5  7  1  0
  7  8  2  0
  8  9  1  0
  9 10  1  0
 10 11  2  0
 10 12  2  0
 10 13  1  0
 13 14  1  0
 14 15  2  0
 15 16  1  0
 16 17  2  0
 17 18  1  0
 18 19  2  0
 18 20  1  0
 20 21  1  0
 21 22  1  0
  9 23  2  0
 23 24  1  0
 23 25  1  0
 25 26  2  0
 26  2  1  0
 26  7  1  0
 19 14  1  0
 22 17  1  0
  1 27  1  0
  1 28  1  0
  1 29  1  0
  6 30  1  0
  6 31  1  0
  6 32  1  0
  8 33  1  0
 13 34  1  0
 15 35  1  0
 16 36  1  0
 19 37  1  0
 20 38  1  0
 21 39  1  0
 21 40  1  0
 22 41  1  0
 22 42  1  0
 25 43  1  0
M  END
>  <meeko>  (3) 
{"is_sidechain": [false], "free_energy": -9.021, "intermolecular_energy": -10.275, "internal_energy": -0.208}

$$$$
ligand_47_conformer_5_docked
     RDKit          3D

 43 46  0  0  0  0  0  0  0  0999 V2000
    8.0720   43.5590   48.6350 C   0  0  0  0  0  0  0  0  0  0  0  0
    6.9430   43.5390   49.5620 N   0  0  0  0  0  0  0  0  0  0  0  0
    6.0440   42.5400   49.7410 C   0  0  0  0  0  0  0  0  0  0  0  0
    6.0290   41.4890   49.0480 O   0  0  0  0  0  0  0  0  0  0  0  0
    5.1810   42.7780   50.7610 N   0  0  0  0  0  0  0  0  0  0  0  0
    4.1520   41.8790   51.2910 C   0  0  0  0  0  0  0  0  0  0  0  0
    5.5860   43.9590   51.2660 C   0  0  0  0  0  0  0  0  0  0  0  0
    5.1010   44.6440   52.3800 C   0  0  0  0  0  0  0  0  0  0  0  0
    5.7410   45.8450   52.7540 C   0  0  0  0  0  0  0  0  0  0  0  0
    5.2030   46.6890   54.2110 S   0  0  0  0  0  0  0  0  0  0  0  0
    4.2930   47.8350   53.8650 O   0  0  0  0  0  0  0  0  0  0  0  0
    6.4130   47.2300   54.9240 O   0  0  0  0  0  0  0  0  0  0  0  0
    4.3570   45.5850   55.2560 N   0  0  0  0  0  0  0  0  0  0  0  0
    2.9430   45.3700   55.1470 C   0  0  0  0  0  0  0  0  0  0  0  0
    2.3870   44.7120   54.0230 C   0  0  0  0  0  0  0  0  0  0  0  0
    1.0060   44.4560   53.9560 C   0  0  0  0  0  0  0  0  0  0  0  0
    0.2020   44.8690   55.0190 C   0  0  0  0  0  0  0  0  0  0  0  0
    0.7320   45.5240   56.0920 C   0  0  0  0  0  0  0  0  0  0  0  0
    2.0950   45.8010   56.1850 C   0  0  0  0  0  0  0  0  0  0  0  0
   -0.2580   45.8140   57.0530 N   0  0  0  0  0  0  0  0  0  0  0  0
   -1.5350   45.2660   56.5990 C   0  0  0  0  0  0  0  0  0  0  0  0
   -1.2710   44.6850   55.1880 C   0  0  0  0  0  0  0  0  0  0  0  0
    6.8490   46.3240   51.9930 C   0  0  0  0  0  0  0  0  0  0  0  0
    7.7710   47.9480   52.4370 Br  0  0  0  0  0  0  0  0  0  0  0  0
    7.3140   45.5980   50.8790 C   0  0  0  0  0  0  0  0  0  0  0  0
    6.6550   44.4180   50.5420 C   0  0  0  0  0  0  0  0  0  0  0  0
    9.0133   43.5757   49.2039 H   0  0  0  0  0  0  0  0  0  0  0  0
    8.0423   42.6602   48.0016 H   0  0  0  0  0  0  0  0  0  0  0  0
    8.0105   44.4562   48.0016 H   0  0  0  0  0  0  0  0  0  0  0  0
    4.1770   41.9008   52.3905 H   0  0  0  0  0  0  0  0  0  0  0  0
    3.1624   42.2071   50.9401 H   0  0  0  0  0  0  0  0  0  0  0  0
    4.3443   40.8543   50.9401 H   0  0  0  0  0  0  0  0  0  0  0  0
    4.2435   44.2588   52.9512 H   0  0  0  0  0  0  0  0  0  0  0  0
    4.9280   44.9410   55.8540 H   0  0  0  0  0  0  0  0  0  0  0  0
    3.0407   44.3986   53.1957 H   0  0  0  0  0  0  0  0  0  0  0  0
    0.5699   43.9425   53.0864 H   0  0  0  0  0  0  0  0  0  0  0  0
    2.4996   46.3450   57.0513 H   0  0  0  0  0  0  0  0  0  0  0  0
   -0.0840   46.2620   57.9820 H   0  0  0  0  0  0  0  0  0  0  0  0
   -1.8753   44.4733   57.2815 H   0  0  0  0  0  0  0  0  0  0  0  0
   -2.3199   46.0363   56.5778 H   0  0  0  0  0  0  0  0  0  0  0  0
   -1.5444   43.6205   55.1412 H   0  0  0  0  0  0  0  0  0  0  0  0
   -1.8622   45.1745   54.4001 H   0  0  0  0  0  0  0  0  0  0  0  0
    8.1736   45.9530   50.2916 H   0  0  0  0  0  0  0  0  0  0  0  0
  1  2  1  0
  2  3  1  0
  3  4  2  0
  3  5  1  0
  5  6  1  0
  5  7  1  0
  7  8  2  0
  8  9  1  0
  9 10  1  0
 10 11  2  0
 10 12  2  0
 10 13  1  0
 13 14  1  0
 14 15  2  0
 15 16  1  0
 16 17  2  0
 17 18  1  0
 18 19  2  0
 18 20  1  0
 20 21  1  0
 21 22  1  0
  9 23  2  0
 23 24  1  0
 23 25  1  0
 25 26  2  0
 26  2  1  0
 26  7  1  0
 19 14  1  0
 22 17  1  0
  1 27  1  0
  1 28  1  0
  1 29  1  0
  6 30  1  0
  6 31  1  0
  6 32  1  0
  8 33  1  0
 13 34  1  0
 15 35  1  0
 16 36  1  0
 19 37  1  0
 20 38  1  0
 21 39  1  0
 21 40  1  0
 22 41  1  0
 22 42  1  0
 25 43  1  0
M  END
>  <meeko>  (4) 
{"is_sidechain": [false], "free_energy": -8.97, "intermolecular_energy": -10.579, "internal_energy": 0.156}

$$$$
ligand_47_conformer_5_docked
     RDKit          3D

 43 46  0  0  0  0  0  0  0  0999 V2000
    8.6510   46.1630   51.2670 C   0  0  0  0  0  0  0  0  0  0  0  0
    7.3130   46.2160   51.8520 N   0  0  0  0  0  0  0  0  0  0  0  0
    6.7550   47.2440   52.5370 C   0  0  0  0  0  0  0  0  0  0  0  0
    7.3760   48.3010   52.8270 O   0  0  0  0  0  0  0  0  0  0  0  0
    5.4530   47.0300   52.8510 N   0  0  0  0  0  0  0  0  0  0  0  0
    4.5220   47.9600   53.4970 C   0  0  0  0  0  0  0  0  0  0  0  0
    5.1750   45.8310   52.3040 C   0  0  0  0  0  0  0  0  0  0  0  0
    3.9560   45.1550   52.2550 C   0  0  0  0  0  0  0  0  0  0  0  0
    3.9020   43.9290   51.5570 C   0  0  0  0  0  0  0  0  0  0  0  0
    2.3520   43.0940   51.4070 S   0  0  0  0  0  0  0  0  0  0  0  0
    2.4530   41.9360   50.4530 O   0  0  0  0  0  0  0  0  0  0  0  0
    1.3330   44.0680   50.8790 O   0  0  0  0  0  0  0  0  0  0  0  0
    1.8420   42.5080   52.9630 N   0  0  0  0  0  0  0  0  0  0  0  0
    1.1040   43.3290   53.8790 C   0  0  0  0  0  0  0  0  0  0  0  0
   -0.3120   43.3120   53.9010 C   0  0  0  0  0  0  0  0  0  0  0  0
   -1.0210   44.0780   54.8430 C   0  0  0  0  0  0  0  0  0  0  0  0
   -0.2970   44.8560   55.7460 C   0  0  0  0  0  0  0  0  0  0  0  0
    1.0660   44.8920   55.7120 C   0  0  0  0  0  0  0  0  0  0  0  0
    1.8000   44.1520   54.7860 C   0  0  0  0  0  0  0  0  0  0  0  0
    1.5820   45.7150   56.7340 N   0  0  0  0  0  0  0  0  0  0  0  0
    0.4700   46.2260   57.5370 C   0  0  0  0  0  0  0  0  0  0  0  0
   -0.8200   45.7210   56.8460 C   0  0  0  0  0  0  0  0  0  0  0  0
    5.0770   43.4170   50.9320 C   0  0  0  0  0  0  0  0  0  0  0  0
    5.0850   41.7590   49.9660 Br  0  0  0  0  0  0  0  0  0  0  0  0
    6.2890   44.1350   50.9970 C   0  0  0  0  0  0  0  0  0  0  0  0
    6.3000   45.3400   51.6950 C   0  0  0  0  0  0  0  0  0  0  0  0
    9.4016   46.1333   52.0706 H   0  0  0  0  0  0  0  0  0  0  0  0
    8.7438   45.2605   50.6450 H   0  0  0  0  0  0  0  0  0  0  0  0
    8.8149   47.0554   50.6450 H   0  0  0  0  0  0  0  0  0  0  0  0
    4.6125   47.8696   54.5895 H   0  0  0  0  0  0  0  0  0  0  0  0
    4.7622   48.9895   53.1931 H   0  0  0  0  0  0  0  0  0  0  0  0
    3.4927   47.7187   53.1931 H   0  0  0  0  0  0  0  0  0  0  0  0
    3.0617   45.5656   52.7465 H   0  0  0  0  0  0  0  0  0  0  0  0
    1.9280   41.4800   53.1530 H   0  0  0  0  0  0  0  0  0  0  0  0
   -0.8615   42.6945   53.1752 H   0  0  0  0  0  0  0  0  0  0  0  0
   -2.1206   44.0640   54.8672 H   0  0  0  0  0  0  0  0  0  0  0  0
    2.8983   44.2095   54.7641 H   0  0  0  0  0  0  0  0  0  0  0  0
    2.5970   45.8570   56.9410 H   0  0  0  0  0  0  0  0  0  0  0  0
    0.5304   45.8383   58.5647 H   0  0  0  0  0  0  0  0  0  0  0  0
    0.4899   47.3239   57.6019 H   0  0  0  0  0  0  0  0  0  0  0  0
   -1.4408   45.1403   57.5441 H   0  0  0  0  0  0  0  0  0  0  0  0
   -1.4658   46.5356   56.4864 H   0  0  0  0  0  0  0  0  0  0  0  0
    7.1992   43.7543   50.5105 H   0  0  0  0  0  0  0  0  0  0  0  0
  1  2  1  0
  2  3  1  0
  3  4  2  0
  3  5  1  0
  5  6  1  0
  5  7  1  0
  7  8  2  0
  8  9  1  0
  9 10  1  0
 10 11  2  0
 10 12  2  0
 10 13  1  0
 13 14  1  0
 14 15  2  0
 15 16  1  0
 16 17  2  0
 17 18  1  0
 18 19  2  0
 18 20  1  0
 20 21  1  0
 21 22  1  0
  9 23  2  0
 23 24  1  0
 23 25  1  0
 25 26  2  0
 26  2  1  0
 26  7  1  0
 19 14  1  0
 22 17  1  0
  1 27  1  0
  1 28  1  0
  1 29  1  0
  6 30  1  0
  6 31  1  0
  6 32  1  0
  8 33  1  0
 13 34  1  0
 15 35  1  0
 16 36  1  0
 19 37  1  0
 20 38  1  0
 21 39  1  0
 21 40  1  0
 22 41  1  0
 22 42  1  0
 25 43  1  0
M  END
>  <meeko>  (5) 
{"is_sidechain": [false], "free_energy": -8.914, "intermolecular_energy": -10.61, "internal_energy": 0.254}

$$$$
