ligand_65_conformer_5_docked
     RDKit          3D

 34 37  0  0  0  0  0  0  0  0999 V2000
    4.4000   45.3100   55.3230 C   0  0  0  0  0  0  0  0  0  0  0  0
    3.4180   46.3540   54.7840 C   0  0  1  0  0  0  0  0  0  0  0  0
    4.0840   47.2420   53.8250 N   0  0  0  0  0  0  0  0  0  0  0  0
    5.4010   46.9660   53.3260 C   0  0  0  0  0  0  0  0  0  0  0  0
    6.5150   47.3400   54.0280 N   0  0  0  0  0  0  0  0  0  0  0  0
    7.7790   47.0940   53.5630 C   0  0  0  0  0  0  0  0  0  0  0  0
    8.9010   47.4890   54.2990 C   0  0  0  0  0  0  0  0  0  0  0  0
   10.1860   47.2280   53.8050 C   0  0  0  0  0  0  0  0  0  0  0  0
   10.3530   46.5740   52.5780 C   0  0  0  0  0  0  0  0  0  0  0  0
    9.2380   46.1740   51.8320 C   0  0  0  0  0  0  0  0  0  0  0  0
    7.9510   46.4330   52.3220 C   0  0  0  0  0  0  0  0  0  0  0  0
    6.8260   46.0750   51.6530 N   0  0  0  0  0  0  0  0  0  0  0  0
    6.6980   45.4610   50.4930 N   0  0  0  0  0  0  0  0  0  0  0  0
    5.3970   45.3330   50.2490 N   0  0  0  0  0  0  0  0  0  0  0  0
    4.6780   45.8590   51.2390 N   0  0  0  0  0  0  0  0  0  0  0  0
    5.5980   46.3170   52.1060 C   0  0  0  0  0  0  0  0  0  0  0  0
    2.2480   45.6670   54.1270 C   0  0  0  0  0  0  0  0  0  0  0  0
    1.7080   46.1470   52.9250 C   0  0  0  0  0  0  0  0  0  0  0  0
    0.6490   45.5070   52.3640 N   0  0  0  0  0  0  0  0  0  0  0  0
    0.0960   44.4120   52.9500 C   0  0  0  0  0  0  0  0  0  0  0  0
    0.6250   43.9350   54.1500 C   0  0  0  0  0  0  0  0  0  0  0  0
    1.6850   44.5730   54.7120 N   0  0  0  0  0  0  0  0  0  0  0  0
    4.3850   45.3259   56.4228 H   0  0  0  0  0  0  0  0  0  0  0  0
    4.1060   44.3117   54.9667 H   0  0  0  0  0  0  0  0  0  0  0  0
    5.4144   45.5424   54.9667 H   0  0  0  0  0  0  0  0  0  0  0  0
    3.0537   46.9613   55.6257 H   0  0  0  0  0  0  0  0  0  0  0  0
    3.5900   48.1030   53.4930 H   0  0  0  0  0  0  0  0  0  0  0  0
    8.7749   48.0032   55.2632 H   0  0  0  0  0  0  0  0  0  0  0  0
   11.0682   47.5384   54.3840 H   0  0  0  0  0  0  0  0  0  0  0  0
   11.3658   46.3735   52.1983 H   0  0  0  0  0  0  0  0  0  0  0  0
    9.3712   45.6603   50.8685 H   0  0  0  0  0  0  0  0  0  0  0  0
    2.1388   47.0353   52.4399 H   0  0  0  0  0  0  0  0  0  0  0  0
   -0.7614   43.9061   52.4821 H   0  0  0  0  0  0  0  0  0  0  0  0
    0.1879   43.0506   54.6365 H   0  0  0  0  0  0  0  0  0  0  0  0
  1  2  1  0
  2  3  1  0
  3  4  1  0
  4  5  2  0
  5  6  1  0
  6  7  2  0
  7  8  1  0
  8  9  2  0
  9 10  1  0
 10 11  2  0
 11 12  1  0
 12 13  1  0
 13 14  2  0
 14 15  1  0
 15 16  2  0
  2 17  1  0
 17 18  2  0
 18 19  1  0
 19 20  2  0
 20 21  1  0
 21 22  2  0
 16  4  1  0
 22 17  1  0
 11  6  1  0
 16 12  1  0
  1 23  1  0
  1 24  1  0
  1 25  1  0
  2 26  1  1
  3 27  1  0
  7 28  1  0
  8 29  1  0
  9 30  1  0
 10 31  1  0
 18 32  1  0
 20 33  1  0
 21 34  1  0
M  END
>  <meeko>  (1) 
{"is_sidechain": [false], "free_energy": -8.901, "intermolecular_energy": -10.462, "internal_energy": -0.297}

$$$$
ligand_65_conformer_5_docked
     RDKit          3D

 34 37  0  0  0  0  0  0  0  0999 V2000
    4.3420   42.2890   50.7590 C   0  0  0  0  0  0  0  0  0  0  0  0
    4.0050   43.4260   51.7280 C   0  0  1  0  0  0  0  0  0  0  0  0
    4.5310   44.7010   51.2310 N   0  0  0  0  0  0  0  0  0  0  0  0
    5.5640   45.4160   51.9250 C   0  0  0  0  0  0  0  0  0  0  0  0
    6.8680   45.3530   51.5100 N   0  0  0  0  0  0  0  0  0  0  0  0
    7.8680   46.0200   52.1650 C   0  0  0  0  0  0  0  0  0  0  0  0
    9.1920   45.9370   51.7230 C   0  0  0  0  0  0  0  0  0  0  0  0
   10.2010   46.6260   52.4070 C   0  0  0  0  0  0  0  0  0  0  0  0
    9.8900   47.4000   53.5330 C   0  0  0  0  0  0  0  0  0  0  0  0
    8.5690   47.4920   53.9860 C   0  0  0  0  0  0  0  0  0  0  0  0
    7.5570   46.8030   53.3040 C   0  0  0  0  0  0  0  0  0  0  0  0
    6.2560   46.8450   53.6860 N   0  0  0  0  0  0  0  0  0  0  0  0
    5.6970   47.4820   54.6970 N   0  0  0  0  0  0  0  0  0  0  0  0
    4.3940   47.2170   54.6680 N   0  0  0  0  0  0  0  0  0  0  0  0
    4.1010   46.4110   53.6480 N   0  0  0  0  0  0  0  0  0  0  0  0
    5.2850   46.1940   53.0500 C   0  0  0  0  0  0  0  0  0  0  0  0
    2.5110   43.5180   51.9110 C   0  0  0  0  0  0  0  0  0  0  0  0
    1.7570   44.4810   51.2260 C   0  0  0  0  0  0  0  0  0  0  0  0
    0.4130   44.5410   51.4200 N   0  0  0  0  0  0  0  0  0  0  0  0
   -0.2150   43.6880   52.2710 C   0  0  0  0  0  0  0  0  0  0  0  0
    0.5340   42.7320   52.9610 C   0  0  0  0  0  0  0  0  0  0  0  0
    1.8770   42.6700   52.7680 N   0  0  0  0  0  0  0  0  0  0  0  0
    4.6092   41.3876   51.3301 H   0  0  0  0  0  0  0  0  0  0  0  0
    3.4683   42.0761   50.1254 H   0  0  0  0  0  0  0  0  0  0  0  0
    5.1906   42.5866   50.1254 H   0  0  0  0  0  0  0  0  0  0  0  0
    4.4753   43.2111   52.6989 H   0  0  0  0  0  0  0  0  0  0  0  0
    4.1460   45.1070   50.3460 H   0  0  0  0  0  0  0  0  0  0  0  0
    9.4406   45.3312   50.8391 H   0  0  0  0  0  0  0  0  0  0  0  0
   11.2423   46.5594   52.0589 H   0  0  0  0  0  0  0  0  0  0  0  0
   10.6888   47.9384   54.0640 H   0  0  0  0  0  0  0  0  0  0  0  0
    8.3271   48.1001   54.8701 H   0  0  0  0  0  0  0  0  0  0  0  0
    2.2493   45.1828   50.5367 H   0  0  0  0  0  0  0  0  0  0  0  0
   -1.3037   43.7498   52.4153 H   0  0  0  0  0  0  0  0  0  0  0  0
    0.0405   42.0354   53.6547 H   0  0  0  0  0  0  0  0  0  0  0  0
  1  2  1  0
  2  3  1  0
  3  4  1  0
  4  5  2  0
  5  6  1  0
  6  7  2  0
  7  8  1  0
  8  9  2  0
  9 10  1  0
 10 11  2  0
 11 12  1  0
 12 13  1  0
 13 14  2  0
 14 15  1  0
 15 16  2  0
  2 17  1  0
 17 18  2  0
 18 19  1  0
 19 20  2  0
 20 21  1  0
 21 22  2  0
 16  4  1  0
 22 17  1  0
 11  6  1  0
 16 12  1  0
  1 23  1  0
  1 24  1  0
  1 25  1  0
  2 26  1  1
  3 27  1  0
  7 28  1  0
  8 29  1  0
  9 30  1  0
 10 31  1  0
 18 32  1  0
 20 33  1  0
 21 34  1  0
M  END
>  <meeko>  (2) 
{"is_sidechain": [false], "free_energy": -8.625, "intermolecular_energy": -9.947, "internal_energy": -0.488}

$$$$
ligand_65_conformer_5_docked
     RDKit          3D

 34 37  0  0  0  0  0  0  0  0999 V2000
    3.8920   42.0460   50.9480 C   0  0  0  0  0  0  0  0  0  0  0  0
    4.1160   43.3520   51.7150 C   0  0  1  0  0  0  0  0  0  0  0  0
    4.7640   44.3500   50.8570 N   0  0  0  0  0  0  0  0  0  0  0  0
    6.0770   44.8540   51.1400 C   0  0  0  0  0  0  0  0  0  0  0  0
    6.3020   45.6840   52.2050 N   0  0  0  0  0  0  0  0  0  0  0  0
    7.5460   46.1820   52.4840 C   0  0  0  0  0  0  0  0  0  0  0  0
    7.7480   47.0310   53.5770 C   0  0  0  0  0  0  0  0  0  0  0  0
    9.0280   47.5310   53.8460 C   0  0  0  0  0  0  0  0  0  0  0  0
   10.1100   47.1840   53.0240 C   0  0  0  0  0  0  0  0  0  0  0  0
    9.9210   46.3360   51.9270 C   0  0  0  0  0  0  0  0  0  0  0  0
    8.6410   45.8340   51.6550 C   0  0  0  0  0  0  0  0  0  0  0  0
    8.3840   45.0090   50.6100 N   0  0  0  0  0  0  0  0  0  0  0  0
    9.2040   44.5350   49.6910 N   0  0  0  0  0  0  0  0  0  0  0  0
    8.4890   43.7700   48.8710 N   0  0  0  0  0  0  0  0  0  0  0  0
    7.2110   43.7430   49.2470 N   0  0  0  0  0  0  0  0  0  0  0  0
    7.1730   44.5270   50.3380 C   0  0  0  0  0  0  0  0  0  0  0  0
    2.8000   43.8820   52.2240 C   0  0  0  0  0  0  0  0  0  0  0  0
    1.9240   43.0640   52.9530 C   0  0  0  0  0  0  0  0  0  0  0  0
    0.7420   43.5720   53.3900 N   0  0  0  0  0  0  0  0  0  0  0  0
    0.3870   44.8580   53.1280 C   0  0  0  0  0  0  0  0  0  0  0  0
    1.2530   45.6720   52.3960 C   0  0  0  0  0  0  0  0  0  0  0  0
    2.4350   45.1670   51.9590 N   0  0  0  0  0  0  0  0  0  0  0  0
    3.7505   41.2212   51.6619 H   0  0  0  0  0  0  0  0  0  0  0  0
    2.9970   42.1411   50.3155 H   0  0  0  0  0  0  0  0  0  0  0  0
    4.7675   41.8374   50.3155 H   0  0  0  0  0  0  0  0  0  0  0  0
    4.7766   43.1474   52.5705 H   0  0  0  0  0  0  0  0  0  0  0  0
    4.2580   44.7090   50.0140 H   0  0  0  0  0  0  0  0  0  0  0  0
    6.9023   47.3056   54.2246 H   0  0  0  0  0  0  0  0  0  0  0  0
    9.1855   48.1988   54.7058 H   0  0  0  0  0  0  0  0  0  0  0  0
   11.1125   47.5805   53.2427 H   0  0  0  0  0  0  0  0  0  0  0  0
   10.7707   46.0654   51.2830 H   0  0  0  0  0  0  0  0  0  0  0  0
    2.1920   42.0193   53.1692 H   0  0  0  0  0  0  0  0  0  0  0  0
   -0.5737   45.2533   53.4895 H   0  0  0  0  0  0  0  0  0  0  0  0
    0.9799   46.7144   52.1750 H   0  0  0  0  0  0  0  0  0  0  0  0
  1  2  1  0
  2  3  1  0
  3  4  1  0
  4  5  2  0
  5  6  1  0
  6  7  2  0
  7  8  1  0
  8  9  2  0
  9 10  1  0
 10 11  2  0
 11 12  1  0
 12 13  1  0
 13 14  2  0
 14 15  1  0
 15 16  2  0
  2 17  1  0
 17 18  2  0
 18 19  1  0
 19 20  2  0
 20 21  1  0
 21 22  2  0
 16  4  1  0
 22 17  1  0
 11  6  1  0
 16 12  1  0
  1 23  1  0
  1 24  1  0
  1 25  1  0
  2 26  1  1
  3 27  1  0
  7 28  1  0
  8 29  1  0
  9 30  1  0
 10 31  1  0
 18 32  1  0
 20 33  1  0
 21 34  1  0
M  END
>  <meeko>  (3) 
{"is_sidechain": [false], "free_energy": -8.551, "intermolecular_energy": -9.866, "internal_energy": -0.482}

$$$$
ligand_65_conformer_5_docked
     RDKit          3D

 34 37  0  0  0  0  0  0  0  0999 V2000
    5.0560   45.0100   54.9310 C   0  0  0  0  0  0  0  0  0  0  0  0
    4.0920   46.1710   54.6690 C   0  0  1  0  0  0  0  0  0  0  0  0
    4.4380   46.8560   53.4190 N   0  0  0  0  0  0  0  0  0  0  0  0
    5.4050   46.3210   52.5040 C   0  0  0  0  0  0  0  0  0  0  0  0
    5.1410   45.1900   51.7790 N   0  0  0  0  0  0  0  0  0  0  0  0
    6.0550   44.6600   50.9080 C   0  0  0  0  0  0  0  0  0  0  0  0
    5.7620   43.5020   50.1810 C   0  0  0  0  0  0  0  0  0  0  0  0
    6.7110   42.9740   49.2970 C   0  0  0  0  0  0  0  0  0  0  0  0
    7.9540   43.6020   49.1350 C   0  0  0  0  0  0  0  0  0  0  0  0
    8.2590   44.7610   49.8570 C   0  0  0  0  0  0  0  0  0  0  0  0
    7.3120   45.2920   50.7430 C   0  0  0  0  0  0  0  0  0  0  0  0
    7.5400   46.4110   51.4760 N   0  0  0  0  0  0  0  0  0  0  0  0
    8.6090   47.1830   51.5200 N   0  0  0  0  0  0  0  0  0  0  0  0
    8.3630   48.1590   52.3900 N   0  0  0  0  0  0  0  0  0  0  0  0
    7.1440   48.0270   52.9140 N   0  0  0  0  0  0  0  0  0  0  0  0
    6.6510   46.9240   52.3240 C   0  0  0  0  0  0  0  0  0  0  0  0
    2.6770   45.6570   54.6030 C   0  0  0  0  0  0  0  0  0  0  0  0
    1.9910   45.2750   55.7660 C   0  0  0  0  0  0  0  0  0  0  0  0
    0.7180   44.8100   55.6700 N   0  0  0  0  0  0  0  0  0  0  0  0
    0.0960   44.7010   54.4660 C   0  0  0  0  0  0  0  0  0  0  0  0
    0.7780   45.0720   53.3060 C   0  0  0  0  0  0  0  0  0  0  0  0
    2.0500   45.5380   53.4000 N   0  0  0  0  0  0  0  0  0  0  0  0
    5.1734   44.8685   56.0155 H   0  0  0  0  0  0  0  0  0  0  0  0
    4.6524   44.0901   54.4828 H   0  0  0  0  0  0  0  0  0  0  0  0
    6.0344   45.2376   54.4828 H   0  0  0  0  0  0  0  0  0  0  0  0
    4.1761   46.8918   55.4957 H   0  0  0  0  0  0  0  0  0  0  0  0
    3.9700   47.7620   53.1830 H   0  0  0  0  0  0  0  0  0  0  0  0
    4.7875   43.0066   50.3033 H   0  0  0  0  0  0  0  0  0  0  0  0
    6.4801   42.0620   48.7269 H   0  0  0  0  0  0  0  0  0  0  0  0
    8.6929   43.1815   48.4370 H   0  0  0  0  0  0  0  0  0  0  0  0
    9.2352   45.2519   49.7301 H   0  0  0  0  0  0  0  0  0  0  0  0
    2.4803   45.3515   56.7482 H   0  0  0  0  0  0  0  0  0  0  0  0
   -0.9356   44.3238   54.4065 H   0  0  0  0  0  0  0  0  0  0  0  0
    0.2893   44.9876   52.3242 H   0  0  0  0  0  0  0  0  0  0  0  0
  1  2  1  0
  2  3  1  0
  3  4  1  0
  4  5  2  0
  5  6  1  0
  6  7  2  0
  7  8  1  0
  8  9  2  0
  9 10  1  0
 10 11  2  0
 11 12  1  0
 12 13  1  0
 13 14  2  0
 14 15  1  0
 15 16  2  0
  2 17  1  0
 17 18  2  0
 18 19  1  0
 19 20  2  0
 20 21  1  0
 21 22  2  0
 16  4  1  0
 22 17  1  0
 11  6  1  0
 16 12  1  0
  1 23  1  0
  1 24  1  0
  1 25  1  0
  2 26  1  1
  3 27  1  0
  7 28  1  0
  8 29  1  0
  9 30  1  0
 10 31  1  0
 18 32  1  0
 20 33  1  0
 21 34  1  0
M  END
>  <meeko>  (4) 
{"is_sidechain": [false], "free_energy": -8.55, "intermolecular_energy": -10.099, "internal_energy": -0.247}

$$$$
ligand_65_conformer_5_docked
     RDKit          3D

 34 37  0  0  0  0  0  0  0  0999 V2000
    1.7630   45.7160   52.4450 C   0  0  0  0  0  0  0  0  0  0  0  0
    1.9580   44.5220   53.3840 C   0  0  1  0  0  0  0  0  0  0  0  0
    3.3590   44.4210   53.8060 N   0  0  0  0  0  0  0  0  0  0  0  0
    4.4430   44.6370   52.8910 C   0  0  0  0  0  0  0  0  0  0  0  0
    4.7540   43.7110   51.9320 N   0  0  0  0  0  0  0  0  0  0  0  0
    5.7900   43.8960   51.0570 C   0  0  0  0  0  0  0  0  0  0  0  0
    6.0880   42.9320   50.0880 C   0  0  0  0  0  0  0  0  0  0  0  0
    7.1540   43.1400   49.2030 C   0  0  0  0  0  0  0  0  0  0  0  0
    7.9230   44.3090   49.2830 C   0  0  0  0  0  0  0  0  0  0  0  0
    7.6340   45.2800   50.2480 C   0  0  0  0  0  0  0  0  0  0  0  0
    6.5700   45.0760   51.1360 C   0  0  0  0  0  0  0  0  0  0  0  0
    6.2340   45.9730   52.0970 N   0  0  0  0  0  0  0  0  0  0  0  0
    6.7840   47.1350   52.3910 N   0  0  0  0  0  0  0  0  0  0  0  0
    6.1100   47.6510   53.4150 N   0  0  0  0  0  0  0  0  0  0  0  0
    5.1270   46.8340   53.7900 N   0  0  0  0  0  0  0  0  0  0  0  0
    5.2270   45.7910   52.9480 C   0  0  0  0  0  0  0  0  0  0  0  0
    1.0620   44.6640   54.5880 C   0  0  0  0  0  0  0  0  0  0  0  0
   -0.2860   44.2800   54.5370 C   0  0  0  0  0  0  0  0  0  0  0  0
   -1.0660   44.4290   55.6400 N   0  0  0  0  0  0  0  0  0  0  0  0
   -0.5670   44.9500   56.7920 C   0  0  0  0  0  0  0  0  0  0  0  0
    0.7720   45.3400   56.8440 C   0  0  0  0  0  0  0  0  0  0  0  0
    1.5540   45.1910   55.7430 N   0  0  0  0  0  0  0  0  0  0  0  0
    1.6138   46.6294   53.0395 H   0  0  0  0  0  0  0  0  0  0  0  0
    2.6540   45.8329   51.8105 H   0  0  0  0  0  0  0  0  0  0  0  0
    0.8812   45.5433   51.8105 H   0  0  0  0  0  0  0  0  0  0  0  0
    1.6911   43.6021   52.8432 H   0  0  0  0  0  0  0  0  0  0  0  0
    3.5800   44.1830   54.8010 H   0  0  0  0  0  0  0  0  0  0  0  0
    5.4870   42.0132   50.0211 H   0  0  0  0  0  0  0  0  0  0  0  0
    7.3886   42.3818   48.4413 H   0  0  0  0  0  0  0  0  0  0  0  0
    8.7579   44.4638   48.5837 H   0  0  0  0  0  0  0  0  0  0  0  0
    8.2381   46.1972   50.3089 H   0  0  0  0  0  0  0  0  0  0  0  0
   -0.7086   43.8616   53.6116 H   0  0  0  0  0  0  0  0  0  0  0  0
   -1.2127   45.0632   57.6753 H   0  0  0  0  0  0  0  0  0  0  0  0
    1.1907   45.7644   57.7685 H   0  0  0  0  0  0  0  0  0  0  0  0
  1  2  1  0
  2  3  1  0
  3  4  1  0
  4  5  2  0
  5  6  1  0
  6  7  2  0
  7  8  1  0
  8  9  2  0
  9 10  1  0
 10 11  2  0
 11 12  1  0
 12 13  1  0
 13 14  2  0
 14 15  1  0
 15 16  2  0
  2 17  1  0
 17 18  2  0
 18 19  1  0
 19 20  2  0
 20 21  1  0
 21 22  2  0
 16  4  1  0
 22 17  1  0
 11  6  1  0
 16 12  1  0
  1 23  1  0
  1 24  1  0
  1 25  1  0
  2 26  1  6
  3 27  1  0
  7 28  1  0
  8 29  1  0
  9 30  1  0
 10 31  1  0
 18 32  1  0
 20 33  1  0
 21 34  1  0
M  END
>  <meeko>  (5) 
{"is_sidechain": [false], "free_energy": -8.337, "intermolecular_energy": -9.72, "internal_energy": -0.376}

$$$$
