ligand_75_conformer_2_docked
     RDKit          3D

 51 56  0  0  0  0  0  0  0  0999 V2000
    7.0780   43.5130   48.8640 O   0  0  0  0  0  0  0  0  0  0  0  0
    6.5150   43.8720   49.9320 C   0  0  0  0  0  0  0  0  0  0  0  0
    5.2690   43.4120   50.2590 N   0  0  0  0  0  0  0  0  0  0  0  0
    4.6460   43.7990   51.4260 C   0  0  0  0  0  0  0  0  0  0  0  0
    3.2660   43.3080   51.7550 C   0  0  0  0  0  0  0  0  0  0  0  0
    2.7900   43.9240   53.0080 N   0  0  0  0  0  0  0  0  0  0  0  0
    2.4720   45.3540   52.8150 C   0  0  0  0  0  0  0  0  0  0  0  0
    2.2280   46.0430   54.1720 C   0  0  0  0  0  0  0  0  0  0  0  0
    1.7940   45.0430   55.2640 C   0  0  0  0  0  0  0  0  0  0  0  0
    1.1070   45.7560   56.3970 C   0  0  0  0  0  0  0  0  0  0  0  0
   -0.2210   46.0560   56.3940 N   0  0  0  0  0  0  0  0  0  0  0  0
   -0.3800   46.7130   57.5570 C   0  0  0  0  0  0  0  0  0  0  0  0
   -1.5510   47.2550   58.0770 C   0  0  0  0  0  0  0  0  0  0  0  0
   -1.4730   47.9120   59.3210 C   0  0  0  0  0  0  0  0  0  0  0  0
   -0.2380   48.0070   60.0040 C   0  0  0  0  0  0  0  0  0  0  0  0
    0.9290   47.4480   59.4470 C   0  0  0  0  0  0  0  0  0  0  0  0
    0.8100   46.8060   58.2170 C   0  0  0  0  0  0  0  0  0  0  0  0
    1.7650   46.2090   57.4940 N   0  0  0  0  0  0  0  0  0  0  0  0
    0.8950   43.9480   54.6690 C   0  0  0  0  0  0  0  0  0  0  0  0
    1.6080   43.1940   53.5230 C   0  0  0  0  0  0  0  0  0  0  0  0
    5.2670   44.6640   52.2860 N   0  0  0  0  0  0  0  0  0  0  0  0
    6.5000   45.1140   51.9590 C   0  0  0  0  0  0  0  0  0  0  0  0
    7.1400   44.7440   50.8110 C   0  0  0  0  0  0  0  0  0  0  0  0
    8.3240   45.3190   50.7200 O   0  0  0  0  0  0  0  0  0  0  0  0
    8.4560   46.0620   51.8050 C   0  0  0  0  0  0  0  0  0  0  0  0
    9.5390   46.8620   52.1600 C   0  0  0  0  0  0  0  0  0  0  0  0
    9.4630   47.5750   53.3730 C   0  0  0  0  0  0  0  0  0  0  0  0
    8.3170   47.4760   54.1960 C   0  0  0  0  0  0  0  0  0  0  0  0
    7.2330   46.6620   53.8180 C   0  0  0  0  0  0  0  0  0  0  0  0
    7.3410   45.9700   52.6150 C   0  0  0  0  0  0  0  0  0  0  0  0
    4.7820   42.7600   49.6030 H   0  0  0  0  0  0  0  0  0  0  0  0
    2.5811   43.5742   50.9364 H   0  0  0  0  0  0  0  0  0  0  0  0
    3.2949   42.2156   51.8811 H   0  0  0  0  0  0  0  0  0  0  0  0
    3.3138   45.8461   52.3058 H   0  0  0  0  0  0  0  0  0  0  0  0
    1.5593   45.4355   52.2065 H   0  0  0  0  0  0  0  0  0  0  0  0
    3.1584   46.5350   54.4918 H   0  0  0  0  0  0  0  0  0  0  0  0
    1.4148   46.7718   54.0392 H   0  0  0  0  0  0  0  0  0  0  0  0
    2.6945   44.5582   55.6690 H   0  0  0  0  0  0  0  0  0  0  0  0
   -2.5050   47.1734   57.5356 H   0  0  0  0  0  0  0  0  0  0  0  0
   -2.3780   48.3537   59.7637 H   0  0  0  0  0  0  0  0  0  0  0  0
   -0.1885   48.5203   60.9756 H   0  0  0  0  0  0  0  0  0  0  0  0
    1.8975   47.5161   59.9641 H   0  0  0  0  0  0  0  0  0  0  0  0
    2.7800   46.1190   57.7200 H   0  0  0  0  0  0  0  0  0  0  0  0
    0.6329   43.2307   55.4607 H   0  0  0  0  0  0  0  0  0  0  0  0
   -0.0078   44.4254   54.2603 H   0  0  0  0  0  0  0  0  0  0  0  0
    1.9357   42.2129   53.8973 H   0  0  0  0  0  0  0  0  0  0  0  0
    0.8916   43.0941   52.6943 H   0  0  0  0  0  0  0  0  0  0  0  0
   10.4261   46.9351   51.5137 H   0  0  0  0  0  0  0  0  0  0  0  0
   10.3027   48.2145   53.6827 H   0  0  0  0  0  0  0  0  0  0  0  0
    8.2726   48.0400   55.1394 H   0  0  0  0  0  0  0  0  0  0  0  0
    6.3357   46.5760   54.4484 H   0  0  0  0  0  0  0  0  0  0  0  0
  1  2  2  0
  2  3  1  0
  3  4  1  0
  4  5  1  0
  5  6  1  0
  6  7  1  0
  7  8  1  0
  8  9  1  0
  9 10  1  0
 10 11  2  0
 11 12  1  0
 12 13  2  0
 13 14  1  0
 14 15  2  0
 15 16  1  0
 16 17  2  0
 17 18  1  0
  9 19  1  0
 19 20  1  0
  4 21  2  0
 21 22  1  0
 22 23  2  0
 23 24  1  0
 24 25  1  0
 25 26  2  0
 26 27  1  0
 27 28  2  0
 28 29  1  0
 29 30  2  0
 23  2  1  0
 30 25  1  0
 20  6  1  0
 30 22  1  0
 18 10  1  0
 17 12  1  0
  3 31  1  0
  5 32  1  0
  5 33  1  0
  7 34  1  0
  7 35  1  0
  8 36  1  0
  8 37  1  0
  9 38  1  0
 13 39  1  0
 14 40  1  0
 15 41  1  0
 16 42  1  0
 18 43  1  0
 19 44  1  0
 19 45  1  0
 20 46  1  0
 20 47  1  0
 26 48  1  0
 27 49  1  0
 28 50  1  0
 29 51  1  0
M  END
>  <meeko>  (1) 
{"is_sidechain": [false], "free_energy": -10.219, "intermolecular_energy": -12.011, "internal_energy": -0.151}

$$$$
ligand_75_conformer_2_docked
     RDKit          3D

 51 56  0  0  0  0  0  0  0  0999 V2000
   -3.8250   45.5780   55.0210 O   0  0  0  0  0  0  0  0  0  0  0  0
   -2.5860   45.4640   55.2180 C   0  0  0  0  0  0  0  0  0  0  0  0
   -1.8010   44.7450   54.3580 N   0  0  0  0  0  0  0  0  0  0  0  0
   -0.4450   44.6160   54.5660 C   0  0  0  0  0  0  0  0  0  0  0  0
    0.3970   43.8000   53.6280 C   0  0  0  0  0  0  0  0  0  0  0  0
    1.7950   44.2720   53.6550 N   0  0  0  0  0  0  0  0  0  0  0  0
    2.6470   43.4770   52.7460 C   0  0  0  0  0  0  0  0  0  0  0  0
    4.1350   43.8050   52.9730 C   0  0  0  0  0  0  0  0  0  0  0  0
    4.3360   45.2040   53.5920 C   0  0  0  0  0  0  0  0  0  0  0  0
    5.7400   45.6930   53.3570 C   0  0  0  0  0  0  0  0  0  0  0  0
    6.3780   45.5840   52.1590 N   0  0  0  0  0  0  0  0  0  0  0  0
    7.5920   46.1010   52.4210 C   0  0  0  0  0  0  0  0  0  0  0  0
    8.6650   46.2430   51.5460 C   0  0  0  0  0  0  0  0  0  0  0  0
    9.8510   46.8090   52.0510 C   0  0  0  0  0  0  0  0  0  0  0  0
    9.9320   47.2140   53.4040 C   0  0  0  0  0  0  0  0  0  0  0  0
    8.8270   47.0540   54.2620 C   0  0  0  0  0  0  0  0  0  0  0  0
    7.6720   46.4920   53.7250 C   0  0  0  0  0  0  0  0  0  0  0  0
    6.5080   46.2370   54.3350 N   0  0  0  0  0  0  0  0  0  0  0  0
    3.3020   46.1950   53.0360 C   0  0  0  0  0  0  0  0  0  0  0  0
    1.8580   45.7100   53.3000 C   0  0  0  0  0  0  0  0  0  0  0  0
    0.1470   45.2050   55.6510 N   0  0  0  0  0  0  0  0  0  0  0  0
   -0.6330   45.9160   56.4960 C   0  0  0  0  0  0  0  0  0  0  0  0
   -1.9790   46.0620   56.3130 C   0  0  0  0  0  0  0  0  0  0  0  0
   -2.5130   46.7920   57.2710 O   0  0  0  0  0  0  0  0  0  0  0  0
   -1.5200   47.1220   58.0800 C   0  0  0  0  0  0  0  0  0  0  0  0
   -1.5880   47.8890   59.2400 C   0  0  0  0  0  0  0  0  0  0  0  0
   -0.3940   48.1150   59.9520 C   0  0  0  0  0  0  0  0  0  0  0  0
    0.8310   47.5730   59.4950 C   0  0  0  0  0  0  0  0  0  0  0  0
    0.8770   46.8000   58.3200 C   0  0  0  0  0  0  0  0  0  0  0  0
   -0.3200   46.5970   57.6400 C   0  0  0  0  0  0  0  0  0  0  0  0
   -2.2460   44.2830   53.5330 H   0  0  0  0  0  0  0  0  0  0  0  0
    0.3641   42.7443   53.9354 H   0  0  0  0  0  0  0  0  0  0  0  0
    0.0022   43.9067   52.6068 H   0  0  0  0  0  0  0  0  0  0  0  0
    2.4794   42.4068   52.9370 H   0  0  0  0  0  0  0  0  0  0  0  0
    2.3838   43.7236   51.7068 H   0  0  0  0  0  0  0  0  0  0  0  0
    4.5641   43.0527   53.6512 H   0  0  0  0  0  0  0  0  0  0  0  0
    4.6363   43.7939   51.9939 H   0  0  0  0  0  0  0  0  0  0  0  0
    4.1829   45.1293   54.6787 H   0  0  0  0  0  0  0  0  0  0  0  0
    8.5890   45.9240   50.4960 H   0  0  0  0  0  0  0  0  0  0  0  0
   10.7203   46.9371   51.3892 H   0  0  0  0  0  0  0  0  0  0  0  0
   10.8632   47.6563   53.7879 H   0  0  0  0  0  0  0  0  0  0  0  0
    8.8746   47.3615   55.3171 H   0  0  0  0  0  0  0  0  0  0  0  0
    6.2550   46.4110   55.3330 H   0  0  0  0  0  0  0  0  0  0  0  0
    3.4458   47.1719   53.5207 H   0  0  0  0  0  0  0  0  0  0  0  0
    3.4476   46.2739   51.9485 H   0  0  0  0  0  0  0  0  0  0  0  0
    1.4356   46.2963   54.1293 H   0  0  0  0  0  0  0  0  0  0  0  0
    1.2850   45.8491   52.3714 H   0  0  0  0  0  0  0  0  0  0  0  0
   -2.5443   48.3054   59.5894 H   0  0  0  0  0  0  0  0  0  0  0  0
   -0.4137   48.7182   60.8716 H   0  0  0  0  0  0  0  0  0  0  0  0
    1.7548   47.7575   60.0630 H   0  0  0  0  0  0  0  0  0  0  0  0
    1.8221   46.3730   57.9534 H   0  0  0  0  0  0  0  0  0  0  0  0
  1  2  2  0
  2  3  1  0
  3  4  1  0
  4  5  1  0
  5  6  1  0
  6  7  1  0
  7  8  1  0
  8  9  1  0
  9 10  1  0
 10 11  2  0
 11 12  1  0
 12 13  2  0
 13 14  1  0
 14 15  2  0
 15 16  1  0
 16 17  2  0
 17 18  1  0
  9 19  1  0
 19 20  1  0
  4 21  2  0
 21 22  1  0
 22 23  2  0
 23 24  1  0
 24 25  1  0
 25 26  2  0
 26 27  1  0
 27 28  2  0
 28 29  1  0
 29 30  2  0
 23  2  1  0
 30 25  1  0
 20  6  1  0
 30 22  1  0
 18 10  1  0
 17 12  1  0
  3 31  1  0
  5 32  1  0
  5 33  1  0
  7 34  1  0
  7 35  1  0
  8 36  1  0
  8 37  1  0
  9 38  1  0
 13 39  1  0
 14 40  1  0
 15 41  1  0
 16 42  1  0
 18 43  1  0
 19 44  1  0
 19 45  1  0
 20 46  1  0
 20 47  1  0
 26 48  1  0
 27 49  1  0
 28 50  1  0
 29 51  1  0
M  END
>  <meeko>  (2) 
{"is_sidechain": [false], "free_energy": -9.806, "intermolecular_energy": -11.537, "internal_energy": -0.14}

$$$$
ligand_75_conformer_2_docked
     RDKit          3D

 51 56  0  0  0  0  0  0  0  0999 V2000
   -3.4900   42.7370   52.3550 O   0  0  0  0  0  0  0  0  0  0  0  0
   -2.3190   43.1430   52.5820 C   0  0  0  0  0  0  0  0  0  0  0  0
   -1.3130   42.9250   51.6800 N   0  0  0  0  0  0  0  0  0  0  0  0
   -0.0300   43.3660   51.9200 C   0  0  0  0  0  0  0  0  0  0  0  0
    1.0690   43.0930   50.9330 C   0  0  0  0  0  0  0  0  0  0  0  0
    2.3320   43.6980   51.3960 N   0  0  0  0  0  0  0  0  0  0  0  0
    3.4930   42.8550   51.0380 C   0  0  0  0  0  0  0  0  0  0  0  0
    4.7660   43.3590   51.7440 C   0  0  0  0  0  0  0  0  0  0  0  0
    4.6720   44.8520   52.1230 C   0  0  0  0  0  0  0  0  0  0  0  0
    6.0420   45.4320   52.3470 C   0  0  0  0  0  0  0  0  0  0  0  0
    7.0290   45.4000   51.4100 N   0  0  0  0  0  0  0  0  0  0  0  0
    8.0620   45.9800   52.0460 C   0  0  0  0  0  0  0  0  0  0  0  0
    9.3430   46.2150   51.5540 C   0  0  0  0  0  0  0  0  0  0  0  0
   10.2710   46.8360   52.4140 C   0  0  0  0  0  0  0  0  0  0  0  0
    9.8950   47.2020   53.7280 C   0  0  0  0  0  0  0  0  0  0  0  0
    8.5910   46.9480   54.1930 C   0  0  0  0  0  0  0  0  0  0  0  0
    7.7030   46.3340   53.3130 C   0  0  0  0  0  0  0  0  0  0  0  0
    6.4270   45.9900   53.5230 N   0  0  0  0  0  0  0  0  0  0  0  0
    3.9050   45.6350   51.0460 C   0  0  0  0  0  0  0  0  0  0  0  0
    2.4870   45.0600   50.8320 C   0  0  0  0  0  0  0  0  0  0  0  0
    0.2670   44.0310   53.0790 N   0  0  0  0  0  0  0  0  0  0  0  0
   -0.7310   44.2450   53.9660 C   0  0  0  0  0  0  0  0  0  0  0  0
   -2.0120   43.8210   53.7520 C   0  0  0  0  0  0  0  0  0  0  0  0
   -2.7960   44.1460   54.7610 O   0  0  0  0  0  0  0  0  0  0  0  0
   -2.0290   44.7790   55.6330 C   0  0  0  0  0  0  0  0  0  0  0  0
   -2.4040   45.3150   56.8630 C   0  0  0  0  0  0  0  0  0  0  0  0
   -1.4120   45.9510   57.6350 C   0  0  0  0  0  0  0  0  0  0  0  0
   -0.0790   46.0360   57.1670 C   0  0  0  0  0  0  0  0  0  0  0  0
    0.2780   45.4880   55.9220 C   0  0  0  0  0  0  0  0  0  0  0  0
   -0.7260   44.8680   55.1830 C   0  0  0  0  0  0  0  0  0  0  0  0
   -1.5280   42.4090   50.7970 H   0  0  0  0  0  0  0  0  0  0  0  0
    1.2031   42.0061   50.8301 H   0  0  0  0  0  0  0  0  0  0  0  0
    0.7960   43.5315   49.9618 H   0  0  0  0  0  0  0  0  0  0  0  0
    3.2953   41.8176   51.3458 H   0  0  0  0  0  0  0  0  0  0  0  0
    3.6466   42.9059   49.9500 H   0  0  0  0  0  0  0  0  0  0  0  0
    4.9192   42.7702   52.6604 H   0  0  0  0  0  0  0  0  0  0  0  0
    5.6078   43.2409   51.0458 H   0  0  0  0  0  0  0  0  0  0  0  0
    4.1131   44.9377   53.0666 H   0  0  0  0  0  0  0  0  0  0  0  0
    9.6212   45.9261   50.5297 H   0  0  0  0  0  0  0  0  0  0  0  0
   11.2934   47.0373   52.0616 H   0  0  0  0  0  0  0  0  0  0  0  0
   10.6264   47.6881   54.3904 H   0  0  0  0  0  0  0  0  0  0  0  0
    8.2848   47.2240   55.2128 H   0  0  0  0  0  0  0  0  0  0  0  0
    5.8620   46.1170   54.3920 H   0  0  0  0  0  0  0  0  0  0  0  0
    3.8212   46.6861   51.3594 H   0  0  0  0  0  0  0  0  0  0  0  0
    4.4581   45.5525   50.0988 H   0  0  0  0  0  0  0  0  0  0  0  0
    1.7596   45.7271   51.3176 H   0  0  0  0  0  0  0  0  0  0  0  0
    2.3155   44.9925   49.7475 H   0  0  0  0  0  0  0  0  0  0  0  0
   -3.4420   45.2438   57.2201 H   0  0  0  0  0  0  0  0  0  0  0  0
   -1.6758   46.3855   58.6105 H   0  0  0  0  0  0  0  0  0  0  0  0
    0.6842   46.5349   57.7823 H   0  0  0  0  0  0  0  0  0  0  0  0
    1.3103   45.5469   55.5466 H   0  0  0  0  0  0  0  0  0  0  0  0
  1  2  2  0
  2  3  1  0
  3  4  1  0
  4  5  1  0
  5  6  1  0
  6  7  1  0
  7  8  1  0
  8  9  1  0
  9 10  1  0
 10 11  2  0
 11 12  1  0
 12 13  2  0
 13 14  1  0
 14 15  2  0
 15 16  1  0
 16 17  2  0
 17 18  1  0
  9 19  1  0
 19 20  1  0
  4 21  2  0
 21 22  1  0
 22 23  2  0
 23 24  1  0
 24 25  1  0
 25 26  2  0
 26 27  1  0
 27 28  2  0
 28 29  1  0
 29 30  2  0
 23  2  1  0
 30 25  1  0
 20  6  1  0
 30 22  1  0
 18 10  1  0
 17 12  1  0
  3 31  1  0
  5 32  1  0
  5 33  1  0
  7 34  1  0
  7 35  1  0
  8 36  1  0
  8 37  1  0
  9 38  1  0
 13 39  1  0
 14 40  1  0
 15 41  1  0
 16 42  1  0
 18 43  1  0
 19 44  1  0
 19 45  1  0
 20 46  1  0
 20 47  1  0
 26 48  1  0
 27 49  1  0
 28 50  1  0
 29 51  1  0
M  END
>  <meeko>  (3) 
{"is_sidechain": [false], "free_energy": -9.574, "intermolecular_energy": -10.924, "internal_energy": -0.481}

$$$$
ligand_75_conformer_2_docked
     RDKit          3D

 51 56  0  0  0  0  0  0  0  0999 V2000
   -3.0470   45.7540   50.5720 O   0  0  0  0  0  0  0  0  0  0  0  0
   -2.2610   45.1530   51.3520 C   0  0  0  0  0  0  0  0  0  0  0  0
   -1.1640   44.4920   50.8710 N   0  0  0  0  0  0  0  0  0  0  0  0
   -0.2980   43.8330   51.7170 C   0  0  0  0  0  0  0  0  0  0  0  0
    0.8850   43.0880   51.1690 C   0  0  0  0  0  0  0  0  0  0  0  0
    2.1400   43.7150   51.6290 N   0  0  0  0  0  0  0  0  0  0  0  0
    3.3180   42.9290   51.2060 C   0  0  0  0  0  0  0  0  0  0  0  0
    4.5910   43.4440   51.9030 C   0  0  0  0  0  0  0  0  0  0  0  0
    4.4570   44.9150   52.3520 C   0  0  0  0  0  0  0  0  0  0  0  0
    5.8130   45.5310   52.5700 C   0  0  0  0  0  0  0  0  0  0  0  0
    6.8000   45.5140   51.6320 N   0  0  0  0  0  0  0  0  0  0  0  0
    7.8180   46.1260   52.2620 C   0  0  0  0  0  0  0  0  0  0  0  0
    9.0930   46.3870   51.7680 C   0  0  0  0  0  0  0  0  0  0  0  0
   10.0050   47.0400   52.6210 C   0  0  0  0  0  0  0  0  0  0  0  0
    9.6210   47.4090   53.9320 C   0  0  0  0  0  0  0  0  0  0  0  0
    8.3230   47.1270   54.3990 C   0  0  0  0  0  0  0  0  0  0  0  0
    7.4510   46.4830   53.5260 C   0  0  0  0  0  0  0  0  0  0  0  0
    6.1840   46.1090   53.7400 N   0  0  0  0  0  0  0  0  0  0  0  0
    3.6380   45.7190   51.3310 C   0  0  0  0  0  0  0  0  0  0  0  0
    2.2350   45.1050   51.1250 C   0  0  0  0  0  0  0  0  0  0  0  0
   -0.5260   43.8220   53.0670 N   0  0  0  0  0  0  0  0  0  0  0  0
   -1.6110   44.4790   53.5360 C   0  0  0  0  0  0  0  0  0  0  0  0
   -2.4820   45.1420   52.7210 C   0  0  0  0  0  0  0  0  0  0  0  0
   -3.4570   45.6950   53.4160 O   0  0  0  0  0  0  0  0  0  0  0  0
   -3.2230   45.3930   54.6820 C   0  0  0  0  0  0  0  0  0  0  0  0
   -3.9790   45.7530   55.7950 C   0  0  0  0  0  0  0  0  0  0  0  0
   -3.5390   45.3160   57.0600 C   0  0  0  0  0  0  0  0  0  0  0  0
   -2.3650   44.5360   57.1840 C   0  0  0  0  0  0  0  0  0  0  0  0
   -1.6170   44.1830   56.0470 C   0  0  0  0  0  0  0  0  0  0  0  0
   -2.0780   44.6320   54.8120 C   0  0  0  0  0  0  0  0  0  0  0  0
   -0.9880   44.4860   49.8410 H   0  0  0  0  0  0  0  0  0  0  0  0
    0.8509   42.0452   51.5173 H   0  0  0  0  0  0  0  0  0  0  0  0
    0.8505   43.1181   50.0700 H   0  0  0  0  0  0  0  0  0  0  0  0
    3.1624   41.8729   51.4715 H   0  0  0  0  0  0  0  0  0  0  0  0
    3.4422   43.0332   50.1180 H   0  0  0  0  0  0  0  0  0  0  0  0
    4.7872   42.8203   52.7876 H   0  0  0  0  0  0  0  0  0  0  0  0
    5.4181   43.3861   51.1801 H   0  0  0  0  0  0  0  0  0  0  0  0
    3.9192   44.9389   53.3113 H   0  0  0  0  0  0  0  0  0  0  0  0
    9.3787   46.0936   50.7471 H   0  0  0  0  0  0  0  0  0  0  0  0
   11.0216   47.2642   52.2656 H   0  0  0  0  0  0  0  0  0  0  0  0
   10.3403   47.9188   54.5897 H   0  0  0  0  0  0  0  0  0  0  0  0
    8.0097   47.4053   55.4160 H   0  0  0  0  0  0  0  0  0  0  0  0
    5.6160   46.2300   54.6080 H   0  0  0  0  0  0  0  0  0  0  0  0
    3.5271   46.7513   51.6944 H   0  0  0  0  0  0  0  0  0  0  0  0
    4.1695   45.6992   50.3681 H   0  0  0  0  0  0  0  0  0  0  0  0
    1.4982   45.7238   51.6581 H   0  0  0  0  0  0  0  0  0  0  0  0
    2.0385   45.0804   50.0430 H   0  0  0  0  0  0  0  0  0  0  0  0
   -4.8907   46.3593   55.6896 H   0  0  0  0  0  0  0  0  0  0  0  0
   -4.1132   45.5836   57.9593 H   0  0  0  0  0  0  0  0  0  0  0  0
   -2.0345   44.2028   58.1789 H   0  0  0  0  0  0  0  0  0  0  0  0
   -0.7034   43.5759   56.1297 H   0  0  0  0  0  0  0  0  0  0  0  0
  1  2  2  0
  2  3  1  0
  3  4  1  0
  4  5  1  0
  5  6  1  0
  6  7  1  0
  7  8  1  0
  8  9  1  0
  9 10  1  0
 10 11  2  0
 11 12  1  0
 12 13  2  0
 13 14  1  0
 14 15  2  0
 15 16  1  0
 16 17  2  0
 17 18  1  0
  9 19  1  0
 19 20  1  0
  4 21  2  0
 21 22  1  0
 22 23  2  0
 23 24  1  0
 24 25  1  0
 25 26  2  0
 26 27  1  0
 27 28  2  0
 28 29  1  0
 29 30  2  0
 23  2  1  0
 30 25  1  0
 20  6  1  0
 30 22  1  0
 18 10  1  0
 17 12  1  0
  3 31  1  0
  5 32  1  0
  5 33  1  0
  7 34  1  0
  7 35  1  0
  8 36  1  0
  8 37  1  0
  9 38  1  0
 13 39  1  0
 14 40  1  0
 15 41  1  0
 16 42  1  0
 18 43  1  0
 19 44  1  0
 19 45  1  0
 20 46  1  0
 20 47  1  0
 26 48  1  0
 27 49  1  0
 28 50  1  0
 29 51  1  0
M  END
>  <meeko>  (4) 
{"is_sidechain": [false], "free_energy": -9.464, "intermolecular_energy": -10.783, "internal_energy": -0.493}

$$$$
ligand_75_conformer_2_docked
     RDKit          3D

 51 56  0  0  0  0  0  0  0  0999 V2000
    5.1790   41.5140   44.5820 O   0  0  0  0  0  0  0  0  0  0  0  0
    4.3320   40.8760   45.2620 C   0  0  0  0  0  0  0  0  0  0  0  0
    4.4180   40.8310   46.6270 N   0  0  0  0  0  0  0  0  0  0  0  0
    3.4950   40.1360   47.3790 C   0  0  0  0  0  0  0  0  0  0  0  0
    3.6210   40.0730   48.8740 C   0  0  0  0  0  0  0  0  0  0  0  0
    4.2550   41.3030   49.3850 N   0  0  0  0  0  0  0  0  0  0  0  0
    3.8720   41.5590   50.7900 C   0  0  0  0  0  0  0  0  0  0  0  0
    4.3250   42.9660   51.2270 C   0  0  0  0  0  0  0  0  0  0  0  0
    5.5080   43.4860   50.3830 C   0  0  0  0  0  0  0  0  0  0  0  0
    6.2320   44.5900   51.1060 C   0  0  0  0  0  0  0  0  0  0  0  0
    7.1940   45.3580   50.5240 N   0  0  0  0  0  0  0  0  0  0  0  0
    7.5800   46.1630   51.5310 C   0  0  0  0  0  0  0  0  0  0  0  0
    8.5500   47.1610   51.5000 C   0  0  0  0  0  0  0  0  0  0  0  0
    8.7920   47.8760   52.6890 C   0  0  0  0  0  0  0  0  0  0  0  0
    8.0640   47.5760   53.8650 C   0  0  0  0  0  0  0  0  0  0  0  0
    7.0910   46.5590   53.8600 C   0  0  0  0  0  0  0  0  0  0  0  0
    6.8800   45.8760   52.6650 C   0  0  0  0  0  0  0  0  0  0  0  0
    6.0240   44.8780   52.4160 N   0  0  0  0  0  0  0  0  0  0  0  0
    6.4620   42.3370   50.0240 C   0  0  0  0  0  0  0  0  0  0  0  0
    5.7290   41.2140   49.2570 C   0  0  0  0  0  0  0  0  0  0  0  0
    2.4690   39.4670   46.7680 N   0  0  0  0  0  0  0  0  0  0  0  0
    2.3880   39.5170   45.4190 C   0  0  0  0  0  0  0  0  0  0  0  0
    3.2870   40.1990   44.6510 C   0  0  0  0  0  0  0  0  0  0  0  0
    2.9950   40.0930   43.3690 O   0  0  0  0  0  0  0  0  0  0  0  0
    1.9100   39.3410   43.3010 C   0  0  0  0  0  0  0  0  0  0  0  0
    1.2210   38.9460   42.1570 C   0  0  0  0  0  0  0  0  0  0  0  0
    0.0800   38.1360   42.3210 C   0  0  0  0  0  0  0  0  0  0  0  0
   -0.3450   37.7430   43.6120 C   0  0  0  0  0  0  0  0  0  0  0  0
    0.3660   38.1540   44.7540 C   0  0  0  0  0  0  0  0  0  0  0  0
    1.4880   38.9530   44.5580 C   0  0  0  0  0  0  0  0  0  0  0  0
    5.2040   41.3300   47.1020 H   0  0  0  0  0  0  0  0  0  0  0  0
    2.6203   39.9685   49.3187 H   0  0  0  0  0  0  0  0  0  0  0  0
    4.2451   39.2087   49.1451 H   0  0  0  0  0  0  0  0  0  0  0  0
    2.7787   41.4849   50.8861 H   0  0  0  0  0  0  0  0  0  0  0  0
    4.3615   40.8127   51.4330 H   0  0  0  0  0  0  0  0  0  0  0  0
    3.4791   43.6605   51.1171 H   0  0  0  0  0  0  0  0  0  0  0  0
    4.6584   42.9036   52.2734 H   0  0  0  0  0  0  0  0  0  0  0  0
    5.1112   43.9016   49.4450 H   0  0  0  0  0  0  0  0  0  0  0  0
    9.1082   47.3835   50.5786 H   0  0  0  0  0  0  0  0  0  0  0  0
    9.5510   48.6720   52.7037 H   0  0  0  0  0  0  0  0  0  0  0  0
    8.2597   48.1409   54.7883 H   0  0  0  0  0  0  0  0  0  0  0  0
    6.5185   46.3129   54.7664 H   0  0  0  0  0  0  0  0  0  0  0  0
    5.3570   44.4240   53.0780 H   0  0  0  0  0  0  0  0  0  0  0  0
    7.2739   42.7296   49.3941 H   0  0  0  0  0  0  0  0  0  0  0  0
    6.8616   41.9145   50.9577 H   0  0  0  0  0  0  0  0  0  0  0  0
    5.9948   41.2837   48.1919 H   0  0  0  0  0  0  0  0  0  0  0  0
    6.0433   40.2539   49.6923 H   0  0  0  0  0  0  0  0  0  0  0  0
    1.5571   39.2567   41.1567 H   0  0  0  0  0  0  0  0  0  0  0  0
   -0.4857   37.8061   41.4372 H   0  0  0  0  0  0  0  0  0  0  0  0
   -1.2384   37.1111   43.7235 H   0  0  0  0  0  0  0  0  0  0  0  0
    0.0471   37.8551   45.7634 H   0  0  0  0  0  0  0  0  0  0  0  0
  1  2  2  0
  2  3  1  0
  3  4  1  0
  4  5  1  0
  5  6  1  0
  6  7  1  0
  7  8  1  0
  8  9  1  0
  9 10  1  0
 10 11  2  0
 11 12  1  0
 12 13  2  0
 13 14  1  0
 14 15  2  0
 15 16  1  0
 16 17  2  0
 17 18  1  0
  9 19  1  0
 19 20  1  0
  4 21  2  0
 21 22  1  0
 22 23  2  0
 23 24  1  0
 24 25  1  0
 25 26  2  0
 26 27  1  0
 27 28  2  0
 28 29  1  0
 29 30  2  0
 23  2  1  0
 30 25  1  0
 20  6  1  0
 30 22  1  0
 18 10  1  0
 17 12  1  0
  3 31  1  0
  5 32  1  0
  5 33  1  0
  7 34  1  0
  7 35  1  0
  8 36  1  0
  8 37  1  0
  9 38  1  0
 13 39  1  0
 14 40  1  0
 15 41  1  0
 16 42  1  0
 18 43  1  0
 19 44  1  0
 19 45  1  0
 20 46  1  0
 20 47  1  0
 26 48  1  0
 27 49  1  0
 28 50  1  0
 29 51  1  0
M  END
>  <meeko>  (5) 
{"is_sidechain": [false], "free_energy": -9.028, "intermolecular_energy": -10.73, "internal_energy": -0.032}

$$$$
