ligand_40_conformer_1_docked
     RDKit          3D

 40 43  0  0  0  0  0  0  0  0999 V2000
    3.3990   46.2570   53.1520 O   0  0  0  0  0  0  0  0  0  0  0  0
    3.3280   44.9260   53.8460 S   0  0  0  0  0  0  0  0  0  0  0  0
    4.5670   44.6530   54.6530 O   0  0  0  0  0  0  0  0  0  0  0  0
    1.8710   44.7810   54.8220 C   0  0  0  0  0  0  0  0  0  0  0  0
    0.9000   43.9870   53.9450 C   0  0  0  0  0  0  0  0  0  0  0  0
    1.6860   43.0670   52.9830 C   0  0  0  0  0  0  0  0  0  0  0  0
    3.0010   43.6560   52.7360 N   0  0  0  0  0  0  0  0  0  0  0  0
    3.9560   43.1460   51.7770 C   0  0  0  0  0  0  0  0  0  0  0  0
    3.8580   41.8270   51.2940 C   0  0  0  0  0  0  0  0  0  0  0  0
    4.7910   41.3330   50.3770 C   0  0  0  0  0  0  0  0  0  0  0  0
    5.8360   42.1440   49.9340 C   0  0  0  0  0  0  0  0  0  0  0  0
    5.9540   43.4600   50.4000 C   0  0  0  0  0  0  0  0  0  0  0  0
    7.1080   44.3150   49.9480 C   0  0  0  0  0  0  0  0  0  0  0  0
    7.0400   45.6310   50.5790 N   0  0  0  0  0  0  0  0  0  0  0  0
    8.0120   46.0770   51.5370 C   0  0  0  0  0  0  0  0  0  0  0  0
    9.3490   46.0470   51.2500 N   0  0  0  0  0  0  0  0  0  0  0  0
   10.2890   46.4760   52.1520 C   0  0  0  0  0  0  0  0  0  0  0  0
    9.9080   46.9440   53.3780 N   0  0  0  0  0  0  0  0  0  0  0  0
    8.5850   46.9730   53.6690 C   0  0  0  0  0  0  0  0  0  0  0  0
    8.0270   47.3910   54.8170 N   0  0  0  0  0  0  0  0  0  0  0  0
    6.7000   47.2050   54.5780 C   0  0  0  0  0  0  0  0  0  0  0  0
    6.4330   46.6970   53.3480 N   0  0  0  0  0  0  0  0  0  0  0  0
    7.6430   46.5570   52.7910 C   0  0  0  0  0  0  0  0  0  0  0  0
    5.0160   43.9540   51.3200 C   0  0  0  0  0  0  0  0  0  0  0  0
    2.0813   44.2408   55.7568 H   0  0  0  0  0  0  0  0  0  0  0  0
    1.4648   45.7602   55.1153 H   0  0  0  0  0  0  0  0  0  0  0  0
    0.2495   43.3733   54.5855 H   0  0  0  0  0  0  0  0  0  0  0  0
    0.2904   44.6880   53.3560 H   0  0  0  0  0  0  0  0  0  0  0  0
    1.8060   42.0727   53.4380 H   0  0  0  0  0  0  0  0  0  0  0  0
    1.1388   42.9640   52.0343 H   0  0  0  0  0  0  0  0  0  0  0  0
    3.0398   41.1790   51.6413 H   0  0  0  0  0  0  0  0  0  0  0  0
    4.7007   40.3021   50.0040 H   0  0  0  0  0  0  0  0  0  0  0  0
    6.5700   41.7489   49.2163 H   0  0  0  0  0  0  0  0  0  0  0  0
    8.0531   43.8266   50.2276 H   0  0  0  0  0  0  0  0  0  0  0  0
    7.0568   44.4380   48.8561 H   0  0  0  0  0  0  0  0  0  0  0  0
    6.2510   46.2610   50.3130 H   0  0  0  0  0  0  0  0  0  0  0  0
   11.3561   46.4431   51.8869 H   0  0  0  0  0  0  0  0  0  0  0  0
    5.9172   47.4440   55.3129 H   0  0  0  0  0  0  0  0  0  0  0  0
    5.4970   46.4710   52.9440 H   0  0  0  0  0  0  0  0  0  0  0  0
    5.1097   44.9859   51.6892 H   0  0  0  0  0  0  0  0  0  0  0  0
  1  2  2  0
  2  3  2  0
  2  4  1  0
  4  5  1  0
  5  6  1  0
  6  7  1  0
  7  8  1  0
  8  9  2  0
  9 10  1  0
 10 11  2  0
 11 12  1  0
 12 13  1  0
 13 14  1  0
 14 15  1  0
 15 16  2  0
 16 17  1  0
 17 18  2  0
 18 19  1  0
 19 20  1  0
 20 21  2  0
 21 22  1  0
 22 23  1  0
 12 24  2  0
  7  2  1  0
 24  8  1  0
 23 15  1  0
 23 19  2  0
  4 25  1  0
  4 26  1  0
  5 27  1  0
  5 28  1  0
  6 29  1  0
  6 30  1  0
  9 31  1  0
 10 32  1  0
 11 33  1  0
 13 34  1  0
 13 35  1  0
 14 36  1  0
 17 37  1  0
 21 38  1  0
 22 39  1  0
 24 40  1  0
M  END
>  <meeko>  (1) 
{"is_sidechain": [false], "free_energy": -8.917, "intermolecular_energy": -11.002, "internal_energy": -1.222}

$$$$
ligand_40_conformer_1_docked
     RDKit          3D

 40 43  0  0  0  0  0  0  0  0999 V2000
    6.1890   45.3790   53.7930 O   0  0  0  0  0  0  0  0  0  0  0  0
    6.1540   46.1970   52.5330 S   0  0  0  0  0  0  0  0  0  0  0  0
    4.7450   46.4910   52.1000 O   0  0  0  0  0  0  0  0  0  0  0  0
    7.1060   47.6680   52.6900 C   0  0  0  0  0  0  0  0  0  0  0  0
    8.4440   47.3330   52.0240 C   0  0  0  0  0  0  0  0  0  0  0  0
    8.2360   46.2560   50.9340 C   0  0  0  0  0  0  0  0  0  0  0  0
    7.0630   45.4550   51.2780 N   0  0  0  0  0  0  0  0  0  0  0  0
    6.6470   44.2690   50.5630 C   0  0  0  0  0  0  0  0  0  0  0  0
    7.2930   43.8810   49.3730 C   0  0  0  0  0  0  0  0  0  0  0  0
    6.8790   42.7420   48.6770 C   0  0  0  0  0  0  0  0  0  0  0  0
    5.8150   41.9770   49.1540 C   0  0  0  0  0  0  0  0  0  0  0  0
    5.1570   42.3420   50.3360 C   0  0  0  0  0  0  0  0  0  0  0  0
    3.9820   41.5340   50.8210 C   0  0  0  0  0  0  0  0  0  0  0  0
    3.4870   42.0720   52.0860 N   0  0  0  0  0  0  0  0  0  0  0  0
    2.4340   43.0470   52.1480 C   0  0  0  0  0  0  0  0  0  0  0  0
    1.3960   43.0200   51.2570 N   0  0  0  0  0  0  0  0  0  0  0  0
    0.3800   43.9390   51.3090 C   0  0  0  0  0  0  0  0  0  0  0  0
    0.3810   44.9210   52.2600 N   0  0  0  0  0  0  0  0  0  0  0  0
    1.4090   44.9540   53.1420 C   0  0  0  0  0  0  0  0  0  0  0  0
    1.5830   45.8420   54.1350 N   0  0  0  0  0  0  0  0  0  0  0  0
    2.7510   45.4230   54.6950 C   0  0  0  0  0  0  0  0  0  0  0  0
    3.2860   44.3320   54.0920 N   0  0  0  0  0  0  0  0  0  0  0  0
    2.4190   44.0540   53.1090 C   0  0  0  0  0  0  0  0  0  0  0  0
    5.5740   43.4870   51.0330 C   0  0  0  0  0  0  0  0  0  0  0  0
    6.6143   48.5061   52.1744 H   0  0  0  0  0  0  0  0  0  0  0  0
    7.2271   47.9775   53.7386 H   0  0  0  0  0  0  0  0  0  0  0  0
    8.8597   48.2416   51.5640 H   0  0  0  0  0  0  0  0  0  0  0  0
    9.1399   46.9484   52.7841 H   0  0  0  0  0  0  0  0  0  0  0  0
    8.0785   46.7421   49.9599 H   0  0  0  0  0  0  0  0  0  0  0  0
    9.1242   45.6098   50.8741 H   0  0  0  0  0  0  0  0  0  0  0  0
    8.1313   44.4801   48.9878 H   0  0  0  0  0  0  0  0  0  0  0  0
    7.3938   42.4481   47.7504 H   0  0  0  0  0  0  0  0  0  0  0  0
    5.4910   41.0835   48.6001 H   0  0  0  0  0  0  0  0  0  0  0  0
    3.1790   41.5738   50.0702 H   0  0  0  0  0  0  0  0  0  0  0  0
    4.3015   40.4927   50.9745 H   0  0  0  0  0  0  0  0  0  0  0  0
    3.9220   41.7260   52.9690 H   0  0  0  0  0  0  0  0  0  0  0  0
   -0.4421   43.8858   50.5801 H   0  0  0  0  0  0  0  0  0  0  0  0
    3.2177   45.9228   55.5566 H   0  0  0  0  0  0  0  0  0  0  0  0
    4.1700   43.8380   54.3440 H   0  0  0  0  0  0  0  0  0  0  0  0
    5.0557   43.7774   51.9588 H   0  0  0  0  0  0  0  0  0  0  0  0
  1  2  2  0
  2  3  2  0
  2  4  1  0
  4  5  1  0
  5  6  1  0
  6  7  1  0
  7  8  1  0
  8  9  2  0
  9 10  1  0
 10 11  2  0
 11 12  1  0
 12 13  1  0
 13 14  1  0
 14 15  1  0
 15 16  2  0
 16 17  1  0
 17 18  2  0
 18 19  1  0
 19 20  1  0
 20 21  2  0
 21 22  1  0
 22 23  1  0
 12 24  2  0
  7  2  1  0
 24  8  1  0
 23 15  1  0
 23 19  2  0
  4 25  1  0
  4 26  1  0
  5 27  1  0
  5 28  1  0
  6 29  1  0
  6 30  1  0
  9 31  1  0
 10 32  1  0
 11 33  1  0
 13 34  1  0
 13 35  1  0
 14 36  1  0
 17 37  1  0
 21 38  1  0
 22 39  1  0
 24 40  1  0
M  END
>  <meeko>  (2) 
{"is_sidechain": [false], "free_energy": -8.41, "intermolecular_energy": -10.418, "internal_energy": -1.18}

$$$$
ligand_40_conformer_1_docked
     RDKit          3D

 40 43  0  0  0  0  0  0  0  0999 V2000
    6.8620   46.1210   54.9430 O   0  0  0  0  0  0  0  0  0  0  0  0
    7.4130   47.0440   53.8930 S   0  0  0  0  0  0  0  0  0  0  0  0
    6.3470   47.9380   53.3250 O   0  0  0  0  0  0  0  0  0  0  0  0
    8.7830   47.9690   54.4970 C   0  0  0  0  0  0  0  0  0  0  0  0
   10.0120   47.2130   53.9840 C   0  0  0  0  0  0  0  0  0  0  0  0
    9.6660   46.4690   52.6740 C   0  0  0  0  0  0  0  0  0  0  0  0
    8.2350   46.1730   52.6610 N   0  0  0  0  0  0  0  0  0  0  0  0
    7.5770   45.3650   51.6590 C   0  0  0  0  0  0  0  0  0  0  0  0
    8.2290   45.0410   50.4530 C   0  0  0  0  0  0  0  0  0  0  0  0
    7.5860   44.2710   49.4800 C   0  0  0  0  0  0  0  0  0  0  0  0
    6.2850   43.8160   49.6930 C   0  0  0  0  0  0  0  0  0  0  0  0
    5.6160   44.1240   50.8840 C   0  0  0  0  0  0  0  0  0  0  0  0
    4.1970   43.6650   51.0880 C   0  0  0  0  0  0  0  0  0  0  0  0
    3.9780   43.3050   52.4870 N   0  0  0  0  0  0  0  0  0  0  0  0
    2.9790   43.9420   53.2990 C   0  0  0  0  0  0  0  0  0  0  0  0
    3.2600   45.0880   53.9920 N   0  0  0  0  0  0  0  0  0  0  0  0
    2.3150   45.7110   54.7650 C   0  0  0  0  0  0  0  0  0  0  0  0
    1.0550   45.1940   54.8710 N   0  0  0  0  0  0  0  0  0  0  0  0
    0.7720   44.0570   54.1890 C   0  0  0  0  0  0  0  0  0  0  0  0
   -0.4010   43.4020   54.1760 N   0  0  0  0  0  0  0  0  0  0  0  0
   -0.1360   42.3510   53.3540 C   0  0  0  0  0  0  0  0  0  0  0  0
    1.1330   42.3390   52.8740 N   0  0  0  0  0  0  0  0  0  0  0  0
    1.6900   43.4290   53.4180 C   0  0  0  0  0  0  0  0  0  0  0  0
    6.2630   44.8980   51.8600 C   0  0  0  0  0  0  0  0  0  0  0  0
    8.7643   48.9951   54.1009 H   0  0  0  0  0  0  0  0  0  0  0  0
    8.7755   48.0603   55.5932 H   0  0  0  0  0  0  0  0  0  0  0  0
   10.8259   47.9279   53.7929 H   0  0  0  0  0  0  0  0  0  0  0  0
   10.3284   46.4814   54.7421 H   0  0  0  0  0  0  0  0  0  0  0  0
    9.9197   47.1027   51.8115 H   0  0  0  0  0  0  0  0  0  0  0  0
   10.2406   45.5329   52.6144 H   0  0  0  0  0  0  0  0  0  0  0  0
    9.2543   45.3976   50.2754 H   0  0  0  0  0  0  0  0  0  0  0  0
    8.1074   44.0232   48.5437 H   0  0  0  0  0  0  0  0  0  0  0  0
    5.7825   43.2129   48.9225 H   0  0  0  0  0  0  0  0  0  0  0  0
    3.5091   44.4772   50.8101 H   0  0  0  0  0  0  0  0  0  0  0  0
    4.0116   42.7828   50.4577 H   0  0  0  0  0  0  0  0  0  0  0  0
    4.5760   42.5540   52.8990 H   0  0  0  0  0  0  0  0  0  0  0  0
    2.5732   46.6344   55.3042 H   0  0  0  0  0  0  0  0  0  0  0  0
   -0.8813   41.5823   53.1019 H   0  0  0  0  0  0  0  0  0  0  0  0
    1.5620   41.6360   52.2320 H   0  0  0  0  0  0  0  0  0  0  0  0
    5.7370   45.1433   52.7944 H   0  0  0  0  0  0  0  0  0  0  0  0
  1  2  2  0
  2  3  2  0
  2  4  1  0
  4  5  1  0
  5  6  1  0
  6  7  1  0
  7  8  1  0
  8  9  2  0
  9 10  1  0
 10 11  2  0
 11 12  1  0
 12 13  1  0
 13 14  1  0
 14 15  1  0
 15 16  2  0
 16 17  1  0
 17 18  2  0
 18 19  1  0
 19 20  1  0
 20 21  2  0
 21 22  1  0
 22 23  1  0
 12 24  2  0
  7  2  1  0
 24  8  1  0
 23 15  1  0
 23 19  2  0
  4 25  1  0
  4 26  1  0
  5 27  1  0
  5 28  1  0
  6 29  1  0
  6 30  1  0
  9 31  1  0
 10 32  1  0
 11 33  1  0
 13 34  1  0
 13 35  1  0
 14 36  1  0
 17 37  1  0
 21 38  1  0
 22 39  1  0
 24 40  1  0
M  END
>  <meeko>  (3) 
{"is_sidechain": [false], "free_energy": -7.882, "intermolecular_energy": -10.286, "internal_energy": -0.66}

$$$$
ligand_40_conformer_1_docked
     RDKit          3D

 40 43  0  0  0  0  0  0  0  0999 V2000
    8.8140   48.2930   51.2460 O   0  0  0  0  0  0  0  0  0  0  0  0
    8.8760   47.0540   52.0930 S   0  0  0  0  0  0  0  0  0  0  0  0
    9.3070   45.8560   51.2940 O   0  0  0  0  0  0  0  0  0  0  0  0
    9.8910   47.2890   53.5110 C   0  0  0  0  0  0  0  0  0  0  0  0
    8.9050   47.5950   54.6420 C   0  0  0  0  0  0  0  0  0  0  0  0
    7.5420   46.9250   54.3510 C   0  0  0  0  0  0  0  0  0  0  0  0
    7.3890   46.7750   52.9050 N   0  0  0  0  0  0  0  0  0  0  0  0
    6.1800   46.3150   52.2570 C   0  0  0  0  0  0  0  0  0  0  0  0
    6.2420   45.5160   51.0990 C   0  0  0  0  0  0  0  0  0  0  0  0
    5.0730   45.0850   50.4680 C   0  0  0  0  0  0  0  0  0  0  0  0
    3.8260   45.4470   50.9770 C   0  0  0  0  0  0  0  0  0  0  0  0
    3.7380   46.2420   52.1280 C   0  0  0  0  0  0  0  0  0  0  0  0
    2.3890   46.6630   52.6480 C   0  0  0  0  0  0  0  0  0  0  0  0
    2.0790   45.9500   53.8840 N   0  0  0  0  0  0  0  0  0  0  0  0
    1.1030   44.8990   53.9430 C   0  0  0  0  0  0  0  0  0  0  0  0
    1.1520   43.8430   53.0740 N   0  0  0  0  0  0  0  0  0  0  0  0
    0.2310   42.8280   53.1220 C   0  0  0  0  0  0  0  0  0  0  0  0
   -0.7750   42.8480   54.0470 N   0  0  0  0  0  0  0  0  0  0  0  0
   -0.8300   43.8930   54.9070 C   0  0  0  0  0  0  0  0  0  0  0  0
   -1.7430   44.0870   55.8740 N   0  0  0  0  0  0  0  0  0  0  0  0
   -1.3390   45.2650   56.4210 C   0  0  0  0  0  0  0  0  0  0  0  0
   -0.2330   45.7890   55.8350 N   0  0  0  0  0  0  0  0  0  0  0  0
    0.0710   44.9030   54.8780 C   0  0  0  0  0  0  0  0  0  0  0  0
    4.9140   46.6740   52.7610 C   0  0  0  0  0  0  0  0  0  0  0  0
   10.4663   46.3780   53.7326 H   0  0  0  0  0  0  0  0  0  0  0  0
   10.6277   48.0935   53.3693 H   0  0  0  0  0  0  0  0  0  0  0  0
    9.3064   47.2075   55.5900 H   0  0  0  0  0  0  0  0  0  0  0  0
    8.7643   48.6836   54.7137 H   0  0  0  0  0  0  0  0  0  0  0  0
    7.5065   45.9359   54.8309 H   0  0  0  0  0  0  0  0  0  0  0  0
    6.7274   47.5472   54.7501 H   0  0  0  0  0  0  0  0  0  0  0  0
    7.2208   45.2285   50.6874 H   0  0  0  0  0  0  0  0  0  0  0  0
    5.1360   44.4579   49.5665 H   0  0  0  0  0  0  0  0  0  0  0  0
    2.9087   45.1076   50.4736 H   0  0  0  0  0  0  0  0  0  0  0  0
    2.3974   47.7451   52.8453 H   0  0  0  0  0  0  0  0  0  0  0  0
    1.6239   46.4240   51.8947 H   0  0  0  0  0  0  0  0  0  0  0  0
    2.5930   46.2250   54.7510 H   0  0  0  0  0  0  0  0  0  0  0  0
    0.3024   41.9918   52.4109 H   0  0  0  0  0  0  0  0  0  0  0  0
   -1.8605   45.7480   57.2605 H   0  0  0  0  0  0  0  0  0  0  0  0
    0.2560   46.6780   56.0830 H   0  0  0  0  0  0  0  0  0  0  0  0
    4.8464   47.3010   53.6623 H   0  0  0  0  0  0  0  0  0  0  0  0
  1  2  2  0
  2  3  2  0
  2  4  1  0
  4  5  1  0
  5  6  1  0
  6  7  1  0
  7  8  1  0
  8  9  2  0
  9 10  1  0
 10 11  2  0
 11 12  1  0
 12 13  1  0
 13 14  1  0
 14 15  1  0
 15 16  2  0
 16 17  1  0
 17 18  2  0
 18 19  1  0
 19 20  1  0
 20 21  2  0
 21 22  1  0
 22 23  1  0
 12 24  2  0
  7  2  1  0
 24  8  1  0
 23 15  1  0
 23 19  2  0
  4 25  1  0
  4 26  1  0
  5 27  1  0
  5 28  1  0
  6 29  1  0
  6 30  1  0
  9 31  1  0
 10 32  1  0
 11 33  1  0
 13 34  1  0
 13 35  1  0
 14 36  1  0
 17 37  1  0
 21 38  1  0
 22 39  1  0
 24 40  1  0
M  END
>  <meeko>  (4) 
{"is_sidechain": [false], "free_energy": -7.723, "intermolecular_energy": -10.377, "internal_energy": -0.373}

$$$$
ligand_40_conformer_1_docked
     RDKit          3D

 40 43  0  0  0  0  0  0  0  0999 V2000
    2.7340   43.0230   50.5710 O   0  0  0  0  0  0  0  0  0  0  0  0
    4.0180   42.4280   51.0780 S   0  0  0  0  0  0  0  0  0  0  0  0
    3.8830   41.9390   52.4930 O   0  0  0  0  0  0  0  0  0  0  0  0
    4.6150   41.1660   50.0080 C   0  0  0  0  0  0  0  0  0  0  0  0
    5.6770   41.8610   49.1520 C   0  0  0  0  0  0  0  0  0  0  0  0
    6.3020   43.0380   49.9360 C   0  0  0  0  0  0  0  0  0  0  0  0
    5.3270   43.5270   50.9090 N   0  0  0  0  0  0  0  0  0  0  0  0
    5.5100   44.7080   51.7230 C   0  0  0  0  0  0  0  0  0  0  0  0
    6.5550   45.6140   51.4550 C   0  0  0  0  0  0  0  0  0  0  0  0
    6.7370   46.7470   52.2520 C   0  0  0  0  0  0  0  0  0  0  0  0
    5.8840   46.9930   53.3280 C   0  0  0  0  0  0  0  0  0  0  0  0
    4.8370   46.1080   53.6140 C   0  0  0  0  0  0  0  0  0  0  0  0
    3.9470   46.3570   54.8020 C   0  0  0  0  0  0  0  0  0  0  0  0
    3.3390   45.1070   55.2500 N   0  0  0  0  0  0  0  0  0  0  0  0
    1.9190   44.9510   55.3970 C   0  0  0  0  0  0  0  0  0  0  0  0
    1.2190   45.6930   56.3090 N   0  0  0  0  0  0  0  0  0  0  0  0
   -0.1380   45.5600   56.4550 C   0  0  0  0  0  0  0  0  0  0  0  0
   -0.8330   44.6670   55.6900 N   0  0  0  0  0  0  0  0  0  0  0  0
   -0.1440   43.9270   54.7880 C   0  0  0  0  0  0  0  0  0  0  0  0
   -0.6520   43.0000   53.9580 N   0  0  0  0  0  0  0  0  0  0  0  0
    0.4540   42.5730   53.2900 C   0  0  0  0  0  0  0  0  0  0  0  0
    1.5980   43.1940   53.6750 N   0  0  0  0  0  0  0  0  0  0  0  0
    1.1940   44.0450   54.6260 C   0  0  0  0  0  0  0  0  0  0  0  0
    4.6560   44.9690   52.8120 C   0  0  0  0  0  0  0  0  0  0  0  0
    5.0596   40.3432   50.5871 H   0  0  0  0  0  0  0  0  0  0  0  0
    3.8144   40.7190   49.4004 H   0  0  0  0  0  0  0  0  0  0  0  0
    6.4643   41.1385   48.8909 H   0  0  0  0  0  0  0  0  0  0  0  0
    5.2060   42.2473   48.2361 H   0  0  0  0  0  0  0  0  0  0  0  0
    7.2064   42.6945   50.4596 H   0  0  0  0  0  0  0  0  0  0  0  0
    6.5746   43.8465   49.2417 H   0  0  0  0  0  0  0  0  0  0  0  0
    7.2342   45.4276   50.6101 H   0  0  0  0  0  0  0  0  0  0  0  0
    7.5557   47.4474   52.0303 H   0  0  0  0  0  0  0  0  0  0  0  0
    6.0342   47.8850   53.9539 H   0  0  0  0  0  0  0  0  0  0  0  0
    4.5452   46.7835   55.6207 H   0  0  0  0  0  0  0  0  0  0  0  0
    3.1510   47.0587   54.5122 H   0  0  0  0  0  0  0  0  0  0  0  0
    3.9710   44.3050   55.4670 H   0  0  0  0  0  0  0  0  0  0  0  0
   -0.6707   46.1770   57.1936 H   0  0  0  0  0  0  0  0  0  0  0  0
    0.4238   41.7971   52.5108 H   0  0  0  0  0  0  0  0  0  0  0  0
    2.5620   43.0320   53.3070 H   0  0  0  0  0  0  0  0  0  0  0  0
    3.8360   44.2714   53.0377 H   0  0  0  0  0  0  0  0  0  0  0  0
  1  2  2  0
  2  3  2  0
  2  4  1  0
  4  5  1  0
  5  6  1  0
  6  7  1  0
  7  8  1  0
  8  9  2  0
  9 10  1  0
 10 11  2  0
 11 12  1  0
 12 13  1  0
 13 14  1  0
 14 15  1  0
 15 16  2  0
 16 17  1  0
 17 18  2  0
 18 19  1  0
 19 20  1  0
 20 21  2  0
 21 22  1  0
 22 23  1  0
 12 24  2  0
  7  2  1  0
 24  8  1  0
 23 15  1  0
 23 19  2  0
  4 25  1  0
  4 26  1  0
  5 27  1  0
  5 28  1  0
  6 29  1  0
  6 30  1  0
  9 31  1  0
 10 32  1  0
 11 33  1  0
 13 34  1  0
 13 35  1  0
 14 36  1  0
 17 37  1  0
 21 38  1  0
 22 39  1  0
 24 40  1  0
M  END
>  <meeko>  (5) 
{"is_sidechain": [false], "free_energy": -7.663, "intermolecular_energy": -9.591, "internal_energy": -1.085}

$$$$
