MODEL 1
REMARK VINA RESULT:    -8.994      0.000      0.000
REMARK INTER + INTRA:         -11.425
REMARK INTER:                 -11.097
REMARK INTRA:                  -0.328
REMARK UNBOUND:                -0.328
REMARK SMILES O=C(c1ccc2cc(-c3ccccc3)[nH]c2c1)N1CC(NC2CCOCC2)C1
REMARK SMILES IDX 1 1 2 2 18 3 19 4 20 5 28 6 3 7 4 8 17 9 5 10 16 11 6 12
REMARK SMILES IDX 15 13 7 14 8 15 9 17 10 18 14 19 11 20 13 21 12 22 21 23
REMARK SMILES IDX 22 25 23 26 27 27 24 28 26 29 25 30
REMARK H PARENT 15 16 21 24
ROOT
ATOM      1  O   UNL     1      -0.183  41.846  53.449  1.00  0.00    -0.269 OA
ATOM      2  C   UNL     1       0.377  42.938  53.736  1.00  0.00     0.254 C 
ATOM      3  N   UNL     1      -0.298  43.857  54.599  1.00  0.00    -0.335 N 
ATOM      4  C   UNL     1      -0.189  45.264  55.030  1.00  0.00     0.140 C 
ATOM      5  C   UNL     1      -1.499  45.307  55.764  1.00  0.00     0.093 C 
ATOM      6  C   UNL     1      -1.585  43.880  55.320  1.00  0.00     0.140 C 
ENDROOT
BRANCH   2   7
ATOM      7  C   UNL     1       1.690  43.261  53.139  1.00  0.00     0.042 A 
ATOM      8  C   UNL     1       2.084  42.635  51.927  1.00  0.00     0.014 A 
ATOM      9  C   UNL     1       2.572  44.164  53.774  1.00  0.00     0.040 A 
ATOM     10  C   UNL     1       3.328  42.924  51.339  1.00  0.00     0.011 A 
ATOM     11  C   UNL     1       3.798  44.426  53.165  1.00  0.00     0.047 A 
ATOM     12  C   UNL     1       4.159  43.832  51.988  1.00  0.00     0.000 A 
ATOM     13  N   UNL     1       4.766  45.246  53.606  1.00  0.00    -0.355 N 
ATOM     14  C   UNL     1       5.413  44.294  51.657  1.00  0.00     0.037 A 
ATOM     15  C   UNL     1       5.762  45.173  52.686  1.00  0.00     0.046 A 
ATOM     16  H   UNL     1       4.733  45.830  54.470  1.00  0.00     0.167 HD
BRANCH  15  17
ATOM     17  C   UNL     1       7.037  45.928  52.779  1.00  0.00    -0.002 A 
ATOM     18  C   UNL     1       7.740  46.294  51.616  1.00  0.00     0.010 A 
ATOM     19  C   UNL     1       7.565  46.293  54.033  1.00  0.00     0.010 A 
ATOM     20  C   UNL     1       8.940  47.006  51.706  1.00  0.00     0.001 A 
ATOM     21  C   UNL     1       8.768  47.003  54.117  1.00  0.00     0.001 A 
ATOM     22  C   UNL     1       9.454  47.359  52.955  1.00  0.00     0.000 A 
ENDBRANCH  15  17
ENDBRANCH   2   7
BRANCH   5  23
ATOM     23  N   UNL     1      -1.386  45.423  57.229  1.00  0.00    -0.308 NA
ATOM     24  H   UNL     1      -0.402  45.266  57.555  1.00  0.00     0.123 HD
BRANCH  23  25
ATOM     25  C   UNL     1      -1.893  46.712  57.731  1.00  0.00     0.058 C 
ATOM     26  C   UNL     1      -3.084  46.462  58.674  1.00  0.00     0.047 C 
ATOM     27  C   UNL     1      -0.804  47.523  58.463  1.00  0.00     0.047 C 
ATOM     28  C   UNL     1      -3.379  47.685  59.563  1.00  0.00     0.161 C 
ATOM     29  C   UNL     1      -1.393  48.792  59.119  1.00  0.00     0.161 C 
ATOM     30  O   UNL     1      -2.806  48.860  59.024  1.00  0.00    -0.381 OA
ENDBRANCH  23  25
ENDBRANCH   5  23
TORSDOF 4
ENDMDL
MODEL 2
REMARK VINA RESULT:    -8.877      1.367      1.803
REMARK INTER + INTRA:         -11.281
REMARK INTER:                 -10.700
REMARK INTRA:                  -0.581
REMARK UNBOUND:                -0.328
REMARK SMILES O=C(c1ccc2cc(-c3ccccc3)[nH]c2c1)N1CC(NC2CCOCC2)C1
REMARK SMILES IDX 1 1 2 2 18 3 19 4 20 5 28 6 3 7 4 8 17 9 5 10 16 11 6 12
REMARK SMILES IDX 15 13 7 14 8 15 9 17 10 18 14 19 11 20 13 21 12 22 21 23
REMARK SMILES IDX 22 25 23 26 27 27 24 28 26 29 25 30
REMARK H PARENT 15 16 21 24
ROOT
ATOM      1  O   UNL     1       0.893  42.343  52.084  1.00  0.00    -0.269 OA
ATOM      2  C   UNL     1       1.082  43.428  52.696  1.00  0.00     0.254 C 
ATOM      3  N   UNL     1       0.114  43.860  53.656  1.00  0.00    -0.335 N 
ATOM      4  C   UNL     1      -0.230  45.074  54.421  1.00  0.00     0.140 C 
ATOM      5  C   UNL     1      -1.532  44.557  54.963  1.00  0.00     0.093 C 
ATOM      6  C   UNL     1      -1.159  43.334  54.183  1.00  0.00     0.140 C 
ENDROOT
BRANCH   2   7
ATOM      7  C   UNL     1       2.269  44.247  52.374  1.00  0.00     0.042 A 
ATOM      8  C   UNL     1       2.266  45.063  51.212  1.00  0.00     0.014 A 
ATOM      9  C   UNL     1       3.420  44.209  53.193  1.00  0.00     0.040 A 
ATOM     10  C   UNL     1       3.383  45.852  50.882  1.00  0.00     0.011 A 
ATOM     11  C   UNL     1       4.510  45.001  52.836  1.00  0.00     0.047 A 
ATOM     12  C   UNL     1       4.489  45.797  51.724  1.00  0.00     0.000 A 
ATOM     13  N   UNL     1       5.686  45.103  53.477  1.00  0.00    -0.355 N 
ATOM     14  C   UNL     1       5.703  46.442  51.651  1.00  0.00     0.037 A 
ATOM     15  C   UNL     1       6.425  45.987  52.759  1.00  0.00     0.046 A 
ATOM     16  H   UNL     1       5.951  44.614  54.360  1.00  0.00     0.167 HD
BRANCH  15  17
ATOM     17  C   UNL     1       7.807  46.399  53.114  1.00  0.00    -0.002 A 
ATOM     18  C   UNL     1       8.887  46.092  52.265  1.00  0.00     0.010 A 
ATOM     19  C   UNL     1       8.060  47.104  54.307  1.00  0.00     0.010 A 
ATOM     20  C   UNL     1      10.187  46.481  52.602  1.00  0.00     0.001 A 
ATOM     21  C   UNL     1       9.363  47.489  54.640  1.00  0.00     0.001 A 
ATOM     22  C   UNL     1      10.425  47.178  53.788  1.00  0.00     0.000 A 
ENDBRANCH  15  17
ENDBRANCH   2   7
BRANCH   5  23
ATOM     23  N   UNL     1      -1.542  44.303  56.415  1.00  0.00    -0.308 NA
ATOM     24  H   UNL     1      -0.575  44.149  56.789  1.00  0.00     0.123 HD
BRANCH  23  25
ATOM     25  C   UNL     1      -2.218  45.374  57.168  1.00  0.00     0.058 C 
ATOM     26  C   UNL     1      -1.192  46.458  57.548  1.00  0.00     0.047 C 
ATOM     27  C   UNL     1      -3.379  46.004  56.372  1.00  0.00     0.047 C 
ATOM     28  C   UNL     1      -1.876  47.784  57.934  1.00  0.00     0.161 C 
ATOM     29  C   UNL     1      -3.969  47.227  57.110  1.00  0.00     0.161 C 
ATOM     30  O   UNL     1      -3.234  47.581  58.270  1.00  0.00    -0.381 OA
ENDBRANCH  23  25
ENDBRANCH   5  23
TORSDOF 4
ENDMDL
MODEL 3
REMARK VINA RESULT:    -8.545      3.819      5.975
REMARK INTER + INTRA:         -10.871
REMARK INTER:                 -10.159
REMARK INTRA:                  -0.712
REMARK UNBOUND:                -0.328
REMARK SMILES O=C(c1ccc2cc(-c3ccccc3)[nH]c2c1)N1CC(NC2CCOCC2)C1
REMARK SMILES IDX 1 1 2 2 18 3 19 4 20 5 28 6 3 7 4 8 17 9 5 10 16 11 6 12
REMARK SMILES IDX 15 13 7 14 8 15 9 17 10 18 14 19 11 20 13 21 12 22 21 23
REMARK SMILES IDX 22 25 23 26 27 27 24 28 26 29 25 30
REMARK H PARENT 15 16 21 24
ROOT
ATOM      1  O   UNL     1       0.143  41.827  53.980  1.00  0.00    -0.269 OA
ATOM      2  C   UNL     1       0.365  42.898  53.355  1.00  0.00     0.254 C 
ATOM      3  N   UNL     1      -0.472  43.241  52.248  1.00  0.00    -0.335 N 
ATOM      4  C   UNL     1      -0.495  44.194  51.122  1.00  0.00     0.140 C 
ATOM      5  C   UNL     1      -1.677  43.587  50.423  1.00  0.00     0.093 C 
ATOM      6  C   UNL     1      -1.638  42.635  51.578  1.00  0.00     0.140 C 
ENDROOT
BRANCH   2   7
ATOM      7  C   UNL     1       1.510  43.745  53.749  1.00  0.00     0.042 A 
ATOM      8  C   UNL     1       1.426  44.541  54.922  1.00  0.00     0.014 A 
ATOM      9  C   UNL     1       2.679  43.798  52.956  1.00  0.00     0.040 A 
ATOM     10  C   UNL     1       2.501  45.357  55.318  1.00  0.00     0.011 A 
ATOM     11  C   UNL     1       3.725  44.618  53.376  1.00  0.00     0.047 A 
ATOM     12  C   UNL     1       3.639  45.366  54.518  1.00  0.00     0.000 A 
ATOM     13  N   UNL     1       4.907  44.805  52.768  1.00  0.00    -0.355 N 
ATOM     14  C   UNL     1       4.821  46.059  54.650  1.00  0.00     0.037 A 
ATOM     15  C   UNL     1       5.589  45.686  53.543  1.00  0.00     0.046 A 
ATOM     16  H   UNL     1       5.229  44.340  51.891  1.00  0.00     0.167 HD
BRANCH  15  17
ATOM     17  C   UNL     1       6.957  46.176  53.239  1.00  0.00    -0.002 A 
ATOM     18  C   UNL     1       7.477  46.087  51.934  1.00  0.00     0.010 A 
ATOM     19  C   UNL     1       7.759  46.740  54.252  1.00  0.00     0.010 A 
ATOM     20  C   UNL     1       8.766  46.550  51.650  1.00  0.00     0.001 A 
ATOM     21  C   UNL     1       9.048  47.199  53.962  1.00  0.00     0.001 A 
ATOM     22  C   UNL     1       9.550  47.104  52.663  1.00  0.00     0.000 A 
ENDBRANCH  15  17
ENDBRANCH   2   7
BRANCH   5  23
ATOM     23  N   UNL     1      -2.896  44.417  50.433  1.00  0.00    -0.308 NA
ATOM     24  H   UNL     1      -2.747  45.320  50.945  1.00  0.00     0.123 HD
BRANCH  23  25
ATOM     25  C   UNL     1      -3.411  44.675  49.077  1.00  0.00     0.058 C 
ATOM     26  C   UNL     1      -3.052  46.113  48.658  1.00  0.00     0.047 C 
ATOM     27  C   UNL     1      -2.861  43.672  48.043  1.00  0.00     0.047 C 
ATOM     28  C   UNL     1      -3.158  46.309  47.134  1.00  0.00     0.161 C 
ATOM     29  C   UNL     1      -3.284  44.056  46.607  1.00  0.00     0.161 C 
ATOM     30  O   UNL     1      -3.956  45.303  46.542  1.00  0.00    -0.381 OA
ENDBRANCH  23  25
ENDBRANCH   5  23
TORSDOF 4
ENDMDL
MODEL 4
REMARK VINA RESULT:    -8.315      2.579      9.192
REMARK INTER + INTRA:         -10.587
REMARK INTER:                 -10.229
REMARK INTRA:                  -0.358
REMARK UNBOUND:                -0.328
REMARK SMILES O=C(c1ccc2cc(-c3ccccc3)[nH]c2c1)N1CC(NC2CCOCC2)C1
REMARK SMILES IDX 1 1 2 2 18 3 19 4 20 5 28 6 3 7 4 8 17 9 5 10 16 11 6 12
REMARK SMILES IDX 15 13 7 14 8 15 9 17 10 18 14 19 11 20 13 21 12 22 21 23
REMARK SMILES IDX 22 25 23 26 27 27 24 28 26 29 25 30
REMARK H PARENT 15 16 21 24
ROOT
ATOM      1  O   UNL     1       2.823  42.531  51.070  1.00  0.00    -0.269 OA
ATOM      2  C   UNL     1       2.879  43.378  52.001  1.00  0.00     0.254 C 
ATOM      3  N   UNL     1       4.081  44.133  52.180  1.00  0.00    -0.335 N 
ATOM      4  C   UNL     1       4.701  45.018  53.185  1.00  0.00     0.140 C 
ATOM      5  C   UNL     1       6.044  45.100  52.518  1.00  0.00     0.093 C 
ATOM      6  C   UNL     1       5.392  44.207  51.509  1.00  0.00     0.140 C 
ENDROOT
BRANCH   2   7
ATOM      7  C   UNL     1       1.726  43.536  52.911  1.00  0.00     0.042 A 
ATOM      8  C   UNL     1       0.661  42.599  52.865  1.00  0.00     0.014 A 
ATOM      9  C   UNL     1       1.655  44.625  53.809  1.00  0.00     0.040 A 
ATOM     10  C   UNL     1      -0.449  42.726  53.720  1.00  0.00     0.011 A 
ATOM     11  C   UNL     1       0.541  44.723  54.640  1.00  0.00     0.047 A 
ATOM     12  C   UNL     1      -0.471  43.804  54.600  1.00  0.00     0.000 A 
ATOM     13  N   UNL     1       0.288  45.675  55.553  1.00  0.00    -0.355 N 
ATOM     14  C   UNL     1      -1.412  44.180  55.531  1.00  0.00     0.037 A 
ATOM     15  C   UNL     1      -0.908  45.350  56.107  1.00  0.00     0.046 A 
ATOM     16  H   UNL     1       0.907  46.480  55.792  1.00  0.00     0.167 HD
BRANCH  15  17
ATOM     17  C   UNL     1      -1.574  46.141  57.173  1.00  0.00    -0.002 A 
ATOM     18  C   UNL     1      -0.889  47.185  57.824  1.00  0.00     0.010 A 
ATOM     19  C   UNL     1      -2.902  45.862  57.551  1.00  0.00     0.010 A 
ATOM     20  C   UNL     1      -1.518  47.929  58.828  1.00  0.00     0.001 A 
ATOM     21  C   UNL     1      -3.525  46.608  58.556  1.00  0.00     0.001 A 
ATOM     22  C   UNL     1      -2.834  47.640  59.194  1.00  0.00     0.000 A 
ENDBRANCH  15  17
ENDBRANCH   2   7
BRANCH   5  23
ATOM     23  N   UNL     1       6.375  46.421  51.954  1.00  0.00    -0.308 NA
ATOM     24  H   UNL     1       5.691  47.156  52.257  1.00  0.00     0.123 HD
BRANCH  23  25
ATOM     25  C   UNL     1       7.752  46.840  52.274  1.00  0.00     0.058 C 
ATOM     26  C   UNL     1       7.996  46.681  53.786  1.00  0.00     0.047 C 
ATOM     27  C   UNL     1       8.804  46.037  51.483  1.00  0.00     0.047 C 
ATOM     28  C   UNL     1       9.499  46.672  54.125  1.00  0.00     0.161 C 
ATOM     29  C   UNL     1      10.238  46.377  51.949  1.00  0.00     0.161 C 
ATOM     30  O   UNL     1      10.264  47.235  53.078  1.00  0.00    -0.381 OA
ENDBRANCH  23  25
ENDBRANCH   5  23
TORSDOF 4
ENDMDL
MODEL 5
REMARK VINA RESULT:    -8.219      3.430      5.850
REMARK INTER + INTRA:         -10.469
REMARK INTER:                 -10.138
REMARK INTRA:                  -0.331
REMARK UNBOUND:                -0.328
REMARK SMILES O=C(c1ccc2cc(-c3ccccc3)[nH]c2c1)N1CC(NC2CCOCC2)C1
REMARK SMILES IDX 1 1 2 2 18 3 19 4 20 5 28 6 3 7 4 8 17 9 5 10 16 11 6 12
REMARK SMILES IDX 15 13 7 14 8 15 9 17 10 18 14 19 11 20 13 21 12 22 21 23
REMARK SMILES IDX 22 25 23 26 27 27 24 28 26 29 25 30
REMARK H PARENT 15 16 21 24
ROOT
ATOM      1  O   UNL     1       0.519  45.252  55.048  1.00  0.00    -0.269 OA
ATOM      2  C   UNL     1       0.669  45.011  53.820  1.00  0.00     0.254 C 
ATOM      3  N   UNL     1      -0.380  44.346  53.112  1.00  0.00    -0.335 N 
ATOM      4  C   UNL     1      -0.597  43.674  51.816  1.00  0.00     0.140 C 
ATOM      5  C   UNL     1      -1.957  43.130  52.144  1.00  0.00     0.093 C 
ATOM      6  C   UNL     1      -1.718  43.824  53.449  1.00  0.00     0.140 C 
ENDROOT
BRANCH   2   7
ATOM      7  C   UNL     1       1.939  45.374  53.158  1.00  0.00     0.042 A 
ATOM      8  C   UNL     1       1.946  45.676  51.770  1.00  0.00     0.014 A 
ATOM      9  C   UNL     1       3.153  45.398  53.880  1.00  0.00     0.040 A 
ATOM     10  C   UNL     1       3.142  46.024  51.115  1.00  0.00     0.011 A 
ATOM     11  C   UNL     1       4.319  45.745  53.200  1.00  0.00     0.047 A 
ATOM     12  C   UNL     1       4.311  46.052  51.868  1.00  0.00     0.000 A 
ATOM     13  N   UNL     1       5.561  45.825  53.704  1.00  0.00    -0.355 N 
ATOM     14  C   UNL     1       5.605  46.345  51.501  1.00  0.00     0.037 A 
ATOM     15  C   UNL     1       6.358  46.194  52.669  1.00  0.00     0.046 A 
ATOM     16  H   UNL     1       5.836  45.656  54.697  1.00  0.00     0.167 HD
BRANCH  15  17
ATOM     17  C   UNL     1       7.825  46.401  52.782  1.00  0.00    -0.002 A 
ATOM     18  C   UNL     1       8.388  46.906  53.968  1.00  0.00     0.010 A 
ATOM     19  C   UNL     1       8.677  46.095  51.703  1.00  0.00     0.010 A 
ATOM     20  C   UNL     1       9.769  47.101  54.072  1.00  0.00     0.001 A 
ATOM     21  C   UNL     1      10.058  46.292  51.811  1.00  0.00     0.001 A 
ATOM     22  C   UNL     1      10.603  46.794  52.994  1.00  0.00     0.000 A 
ENDBRANCH  15  17
ENDBRANCH   2   7
BRANCH   5  23
ATOM     23  N   UNL     1      -3.068  43.740  51.391  1.00  0.00    -0.308 NA
ATOM     24  H   UNL     1      -2.814  44.690  51.028  1.00  0.00     0.123 HD
BRANCH  23  25
ATOM     25  C   UNL     1      -3.539  42.881  50.290  1.00  0.00     0.058 C 
ATOM     26  C   UNL     1      -2.829  43.284  48.985  1.00  0.00     0.047 C 
ATOM     27  C   UNL     1      -3.304  41.384  50.577  1.00  0.00     0.047 C 
ATOM     28  C   UNL     1      -2.928  42.181  47.914  1.00  0.00     0.161 C 
ATOM     29  C   UNL     1      -3.656  40.514  49.349  1.00  0.00     0.161 C 
ATOM     30  O   UNL     1      -3.980  41.281  48.201  1.00  0.00    -0.381 OA
ENDBRANCH  23  25
ENDBRANCH   5  23
TORSDOF 4
ENDMDL
