ligand_93_conformer_2_docked
     RDKit          3D

 55 59  0  0  0  0  0  0  0  0999 V2000
   10.6760   47.4320   55.4390 C   0  0  0  0  0  0  0  0  0  0  0  0
    9.3430   47.0520   54.9450 N   0  0  0  0  0  0  0  0  0  0  0  0
    8.4590   48.1960   54.6840 C   0  0  0  0  0  0  0  0  0  0  0  0
    7.4980   47.7700   53.5660 C   0  0  0  0  0  0  0  0  0  0  0  0
    7.8540   46.3120   53.2850 C   0  0  2  0  0  0  0  0  0  0  0  0
    9.3190   46.2340   53.7240 C   0  0  1  0  0  0  0  0  0  0  0  0
   10.3000   46.7570   52.6280 C   0  0  0  0  0  0  0  0  0  0  0  0
    9.9200   46.3930   51.1830 C   0  0  0  0  0  0  0  0  0  0  0  0
    8.7680   45.4020   51.1030 C   0  0  0  0  0  0  0  0  0  0  0  0
    7.6280   45.8890   51.8870 N   0  0  0  0  0  0  0  0  0  0  0  0
    6.3090   45.4790   51.4660 C   0  0  0  0  0  0  0  0  0  0  0  0
    6.1890   44.4910   50.6880 O   0  0  0  0  0  0  0  0  0  0  0  0
    5.0640   46.1740   51.9690 C   0  0  1  0  0  0  0  0  0  0  0  0
    4.0250   46.4430   50.8770 C   0  0  0  0  0  0  0  0  0  0  0  0
    2.6850   46.4070   51.5980 C   0  0  0  0  0  0  0  0  0  0  0  0
    2.9090   45.6390   52.8180 N   0  0  0  0  0  0  0  0  0  0  0  0
    1.8490   45.2630   53.7340 C   0  0  0  0  0  0  0  0  0  0  0  0
    0.6750   44.6560   53.2450 C   0  0  0  0  0  0  0  0  0  0  0  0
   -0.3610   44.2900   54.1090 C   0  0  0  0  0  0  0  0  0  0  0  0
   -0.2500   44.5180   55.4870 C   0  0  0  0  0  0  0  0  0  0  0  0
   -1.3450   44.1290   56.4010 C   0  0  0  0  0  0  0  0  0  0  0  0
   -1.5600   44.6810   57.6130 N   0  0  0  0  0  0  0  0  0  0  0  0
   -2.6230   44.0540   58.0900 N   0  0  0  0  0  0  0  0  0  0  0  0
   -3.0320   43.1630   57.2060 N   0  0  0  0  0  0  0  0  0  0  0  0
   -2.2600   43.1760   56.1340 N   0  0  0  0  0  0  0  0  0  0  0  0
    0.9160   45.1160   55.9870 C   0  0  0  0  0  0  0  0  0  0  0  0
    1.9560   45.4850   55.1270 C   0  0  0  0  0  0  0  0  0  0  0  0
    3.0650   46.0370   55.6770 F   0  0  0  0  0  0  0  0  0  0  0  0
    4.3220   45.3500   53.0200 C   0  0  0  0  0  0  0  0  0  0  0  0
   10.6733   47.4312   56.5390 H   0  0  0  0  0  0  0  0  0  0  0  0
   11.4218   46.7107   55.0736 H   0  0  0  0  0  0  0  0  0  0  0  0
   10.9293   48.4381   55.0736 H   0  0  0  0  0  0  0  0  0  0  0  0
    7.8934   48.4520   55.5920 H   0  0  0  0  0  0  0  0  0  0  0  0
    9.0390   49.0827   54.3884 H   0  0  0  0  0  0  0  0  0  0  0  0
    6.4530   47.8572   53.8983 H   0  0  0  0  0  0  0  0  0  0  0  0
    7.5938   48.4022   52.6709 H   0  0  0  0  0  0  0  0  0  0  0  0
    7.2042   45.6085   53.8261 H   0  0  0  0  0  0  0  0  0  0  0  0
    9.6604   45.2027   53.8969 H   0  0  0  0  0  0  0  0  0  0  0  0
   10.3413   47.8536   52.7033 H   0  0  0  0  0  0  0  0  0  0  0  0
   11.2654   46.2671   52.8229 H   0  0  0  0  0  0  0  0  0  0  0  0
    9.6285   47.3128   50.6549 H   0  0  0  0  0  0  0  0  0  0  0  0
   10.7974   45.9156   50.7223 H   0  0  0  0  0  0  0  0  0  0  0  0
    8.4629   45.2829   50.0529 H   0  0  0  0  0  0  0  0  0  0  0  0
    9.0970   44.4343   51.5095 H   0  0  0  0  0  0  0  0  0  0  0  0
    5.4544   47.1171   52.3790 H   0  0  0  0  0  0  0  0  0  0  0  0
    4.1917   47.4286   50.4179 H   0  0  0  0  0  0  0  0  0  0  0  0
    4.0782   45.7056   50.0625 H   0  0  0  0  0  0  0  0  0  0  0  0
    2.3547   47.4272   51.8431 H   0  0  0  0  0  0  0  0  0  0  0  0
    1.9016   45.9535   50.9729 H   0  0  0  0  0  0  0  0  0  0  0  0
    0.5723   44.4672   52.1662 H   0  0  0  0  0  0  0  0  0  0  0  0
   -1.2695   43.8199   53.7044 H   0  0  0  0  0  0  0  0  0  0  0  0
   -3.8540   42.5330   57.3360 H   0  0  0  0  0  0  0  0  0  0  0  0
    1.0139   45.2969   57.0676 H   0  0  0  0  0  0  0  0  0  0  0  0
    4.6340   45.6477   54.0319 H   0  0  0  0  0  0  0  0  0  0  0  0
    4.5361   44.2756   52.9206 H   0  0  0  0  0  0  0  0  0  0  0  0
  1  2  1  0
  2  3  1  0
  3  4  1  0
  4  5  1  0
  5  6  1  0
  6  7  1  0
  7  8  1  0
  8  9  1  0
  9 10  1  0
 10 11  1  0
 11 12  2  0
 11 13  1  0
 13 14  1  0
 14 15  1  0
 15 16  1  0
 16 17  1  0
 17 18  2  0
 18 19  1  0
 19 20  2  0
 20 21  1  0
 21 22  1  0
 22 23  2  0
 23 24  1  0
 24 25  1  0
 20 26  1  0
 26 27  2  0
 27 28  1  0
 16 29  1  0
  6  2  1  0
 29 13  1  0
 10  5  1  0
 27 17  1  0
 25 21  2  0
  1 30  1  0
  1 31  1  0
  1 32  1  0
  3 33  1  0
  3 34  1  0
  4 35  1  0
  4 36  1  0
  5 37  1  1
  6 38  1  1
  7 39  1  0
  7 40  1  0
  8 41  1  0
  8 42  1  0
  9 43  1  0
  9 44  1  0
 13 45  1  1
 14 46  1  0
 14 47  1  0
 15 48  1  0
 15 49  1  0
 18 50  1  0
 19 51  1  0
 24 52  1  0
 26 53  1  0
 29 54  1  0
 29 55  1  0
M  END
>  <meeko>  (1) 
{"is_sidechain": [false], "free_energy": -8.581, "intermolecular_energy": -10.587, "internal_energy": -0.532}

$$$$
ligand_93_conformer_2_docked
     RDKit          3D

 55 59  0  0  0  0  0  0  0  0999 V2000
    9.8680   46.3770   51.5640 C   0  0  0  0  0  0  0  0  0  0  0  0
    8.5440   46.2640   50.9320 N   0  0  0  0  0  0  0  0  0  0  0  0
    8.2340   44.9150   50.4410 C   0  0  0  0  0  0  0  0  0  0  0  0
    6.7090   44.7560   50.5070 C   0  0  0  0  0  0  0  0  0  0  0  0
    6.1990   46.1130   50.9850 C   0  0  2  0  0  0  0  0  0  0  0  0
    7.3990   46.6670   51.7600 C   0  0  1  0  0  0  0  0  0  0  0  0
    7.4800   46.1070   53.2150 C   0  0  0  0  0  0  0  0  0  0  0  0
    6.1270   45.9390   53.9270 C   0  0  0  0  0  0  0  0  0  0  0  0
    4.9690   46.5550   53.1560 C   0  0  0  0  0  0  0  0  0  0  0  0
    4.9550   46.0510   51.7790 N   0  0  0  0  0  0  0  0  0  0  0  0
    3.6780   45.9890   51.1060 C   0  0  0  0  0  0  0  0  0  0  0  0
    3.4770   46.7220   50.0980 O   0  0  0  0  0  0  0  0  0  0  0  0
    2.5930   45.0350   51.5500 C   0  0  1  0  0  0  0  0  0  0  0  0
    3.1220   43.6850   52.0420 C   0  0  0  0  0  0  0  0  0  0  0  0
    2.1050   43.2210   53.0730 C   0  0  0  0  0  0  0  0  0  0  0  0
    1.4110   44.4240   53.5200 N   0  0  0  0  0  0  0  0  0  0  0  0
    0.4410   44.4360   54.5980 C   0  0  0  0  0  0  0  0  0  0  0  0
   -0.8190   43.8300   54.4210 C   0  0  0  0  0  0  0  0  0  0  0  0
   -1.7710   43.8340   55.4440 C   0  0  0  0  0  0  0  0  0  0  0  0
   -1.4890   44.4420   56.6750 C   0  0  0  0  0  0  0  0  0  0  0  0
   -2.4950   44.4450   57.7570 C   0  0  0  0  0  0  0  0  0  0  0  0
   -2.9820   45.5580   58.3440 N   0  0  0  0  0  0  0  0  0  0  0  0
   -3.8440   45.1190   59.2470 N   0  0  0  0  0  0  0  0  0  0  0  0
   -3.8760   43.7990   59.2070 N   0  0  0  0  0  0  0  0  0  0  0  0
   -3.0470   43.3370   58.2900 N   0  0  0  0  0  0  0  0  0  0  0  0
   -0.2360   45.0430   56.8650 C   0  0  0  0  0  0  0  0  0  0  0  0
    0.7210   45.0430   55.8450 C   0  0  0  0  0  0  0  0  0  0  0  0
    1.9200   45.6200   56.1020 F   0  0  0  0  0  0  0  0  0  0  0  0
    1.7760   45.5840   52.7180 C   0  0  0  0  0  0  0  0  0  0  0  0
    9.7541   46.3673   52.6580 H   0  0  0  0  0  0  0  0  0  0  0  0
   10.4962   45.5292   51.2532 H   0  0  0  0  0  0  0  0  0  0  0  0
   10.3435   47.3190   51.2532 H   0  0  0  0  0  0  0  0  0  0  0  0
    8.5817   44.8009   49.4036 H   0  0  0  0  0  0  0  0  0  0  0  0
    8.7364   44.1492   51.0502 H   0  0  0  0  0  0  0  0  0  0  0  0
    6.3006   44.5157   49.5143 H   0  0  0  0  0  0  0  0  0  0  0  0
    6.4042   43.9374   51.1756 H   0  0  0  0  0  0  0  0  0  0  0  0
    5.8857   46.7614   50.1535 H   0  0  0  0  0  0  0  0  0  0  0  0
    7.3465   47.7554   51.9103 H   0  0  0  0  0  0  0  0  0  0  0  0
    7.9679   45.1220   53.1741 H   0  0  0  0  0  0  0  0  0  0  0  0
    8.0422   46.8512   53.7982 H   0  0  0  0  0  0  0  0  0  0  0  0
    5.9299   44.8645   54.0563 H   0  0  0  0  0  0  0  0  0  0  0  0
    6.1956   46.4629   54.8918 H   0  0  0  0  0  0  0  0  0  0  0  0
    4.0221   46.2910   53.6496 H   0  0  0  0  0  0  0  0  0  0  0  0
    5.0899   47.6482   53.1378 H   0  0  0  0  0  0  0  0  0  0  0  0
    1.9865   44.9100   50.6408 H   0  0  0  0  0  0  0  0  0  0  0  0
    3.1857   42.9676   51.2106 H   0  0  0  0  0  0  0  0  0  0  0  0
    4.1344   43.7651   52.4646 H   0  0  0  0  0  0  0  0  0  0  0  0
    1.3938   42.5157   52.6183 H   0  0  0  0  0  0  0  0  0  0  0  0
    2.5894   42.6992   53.9115 H   0  0  0  0  0  0  0  0  0  0  0  0
   -1.0569   43.3461   53.4622 H   0  0  0  0  0  0  0  0  0  0  0  0
   -2.7487   43.3566   55.2820 H   0  0  0  0  0  0  0  0  0  0  0  0
   -4.4750   43.2030   59.8190 H   0  0  0  0  0  0  0  0  0  0  0  0
   -0.0031   45.5203   57.8283 H   0  0  0  0  0  0  0  0  0  0  0  0
    0.8744   46.0950   52.3493 H   0  0  0  0  0  0  0  0  0  0  0  0
    2.3464   46.3204   53.3032 H   0  0  0  0  0  0  0  0  0  0  0  0
  1  2  1  0
  2  3  1  0
  3  4  1  0
  4  5  1  0
  5  6  1  0
  6  7  1  0
  7  8  1  0
  8  9  1  0
  9 10  1  0
 10 11  1  0
 11 12  2  0
 11 13  1  0
 13 14  1  0
 14 15  1  0
 15 16  1  0
 16 17  1  0
 17 18  2  0
 18 19  1  0
 19 20  2  0
 20 21  1  0
 21 22  1  0
 22 23  2  0
 23 24  1  0
 24 25  1  0
 20 26  1  0
 26 27  2  0
 27 28  1  0
 16 29  1  0
  6  2  1  0
 29 13  1  0
 10  5  1  0
 27 17  1  0
 25 21  2  0
  1 30  1  0
  1 31  1  0
  1 32  1  0
  3 33  1  0
  3 34  1  0
  4 35  1  0
  4 36  1  0
  5 37  1  6
  6 38  1  1
  7 39  1  0
  7 40  1  0
  8 41  1  0
  8 42  1  0
  9 43  1  0
  9 44  1  0
 13 45  1  6
 14 46  1  0
 14 47  1  0
 15 48  1  0
 15 49  1  0
 18 50  1  0
 19 51  1  0
 24 52  1  0
 26 53  1  0
 29 54  1  0
 29 55  1  0
M  END
>  <meeko>  (2) 
{"is_sidechain": [false], "free_energy": -8.53, "intermolecular_energy": -10.226, "internal_energy": -0.831}

$$$$
ligand_93_conformer_2_docked
     RDKit          3D

 55 59  0  0  0  0  0  0  0  0999 V2000
   -2.9580   47.5680   58.9100 C   0  0  0  0  0  0  0  0  0  0  0  0
   -2.1850   47.2620   57.6970 N   0  0  0  0  0  0  0  0  0  0  0  0
   -0.7540   47.0380   57.9460 C   0  0  0  0  0  0  0  0  0  0  0  0
   -0.2600   46.0720   56.8610 C   0  0  0  0  0  0  0  0  0  0  0  0
   -1.4730   45.8420   55.9640 C   0  0  2  0  0  0  0  0  0  0  0  0
   -2.6460   46.1060   56.9140 C   0  0  1  0  0  0  0  0  0  0  0  0
   -2.9830   44.8700   57.8060 C   0  0  0  0  0  0  0  0  0  0  0  0
   -2.8660   43.5060   57.1040 C   0  0  0  0  0  0  0  0  0  0  0  0
   -2.6520   43.6270   55.6020 C   0  0  0  0  0  0  0  0  0  0  0  0
   -1.5140   44.5100   55.3250 N   0  0  0  0  0  0  0  0  0  0  0  0
   -0.7730   44.2770   54.1070 C   0  0  0  0  0  0  0  0  0  0  0  0
   -1.2810   44.6180   53.0020 O   0  0  0  0  0  0  0  0  0  0  0  0
    0.6150   43.6790   54.1250 C   0  0  1  0  0  0  0  0  0  0  0  0
    0.9570   42.8790   52.8650 C   0  0  0  0  0  0  0  0  0  0  0  0
    2.4650   43.0210   52.7120 C   0  0  0  0  0  0  0  0  0  0  0  0
    2.8310   44.2220   53.4540 N   0  0  0  0  0  0  0  0  0  0  0  0
    4.1680   44.7840   53.4610 C   0  0  0  0  0  0  0  0  0  0  0  0
    4.8780   44.9030   54.6720 C   0  0  0  0  0  0  0  0  0  0  0  0
    6.1650   45.4460   54.7020 C   0  0  0  0  0  0  0  0  0  0  0  0
    6.7800   45.8830   53.5210 C   0  0  0  0  0  0  0  0  0  0  0  0
    8.1420   46.4570   53.5520 C   0  0  0  0  0  0  0  0  0  0  0  0
    8.6610   47.1370   54.5960 N   0  0  0  0  0  0  0  0  0  0  0  0
    9.8830   47.4680   54.2130 N   0  0  0  0  0  0  0  0  0  0  0  0
   10.0940   47.0080   52.9930 N   0  0  0  0  0  0  0  0  0  0  0  0
    9.0300   46.3690   52.5420 N   0  0  0  0  0  0  0  0  0  0  0  0
    6.0850   45.7650   52.3080 C   0  0  0  0  0  0  0  0  0  0  0  0
    4.7960   45.2220   52.2710 C   0  0  0  0  0  0  0  0  0  0  0  0
    4.1890   45.1150   51.0640 F   0  0  0  0  0  0  0  0  0  0  0  0
    1.7070   44.7430   54.2210 C   0  0  0  0  0  0  0  0  0  0  0  0
   -2.3553   47.3294   59.7988 H   0  0  0  0  0  0  0  0  0  0  0  0
   -3.2179   48.6368   58.9193 H   0  0  0  0  0  0  0  0  0  0  0  0
   -3.8790   46.9666   58.9193 H   0  0  0  0  0  0  0  0  0  0  0  0
   -0.2055   47.9895   57.8839 H   0  0  0  0  0  0  0  0  0  0  0  0
   -0.5892   46.6205   58.9503 H   0  0  0  0  0  0  0  0  0  0  0  0
    0.5656   46.5207   56.2891 H   0  0  0  0  0  0  0  0  0  0  0  0
    0.1275   45.1338   57.2848 H   0  0  0  0  0  0  0  0  0  0  0  0
   -1.4748   46.4996   55.0822 H   0  0  0  0  0  0  0  0  0  0  0  0
   -3.5903   46.3006   56.3845 H   0  0  0  0  0  0  0  0  0  0  0  0
   -2.2948   44.8715   58.6641 H   0  0  0  0  0  0  0  0  0  0  0  0
   -4.0399   44.9776   58.0912 H   0  0  0  0  0  0  0  0  0  0  0  0
   -2.0142   42.9609   57.5367 H   0  0  0  0  0  0  0  0  0  0  0  0
   -3.8158   42.9733   57.2593 H   0  0  0  0  0  0  0  0  0  0  0  0
   -2.4503   42.6307   55.1817 H   0  0  0  0  0  0  0  0  0  0  0  0
   -3.5570   44.0507   55.1422 H   0  0  0  0  0  0  0  0  0  0  0  0
    0.5923   43.0260   55.0099 H   0  0  0  0  0  0  0  0  0  0  0  0
    0.6779   41.8223   52.9892 H   0  0  0  0  0  0  0  0  0  0  0  0
    0.4136   43.2440   51.9810 H   0  0  0  0  0  0  0  0  0  0  0  0
    2.9765   42.1418   53.1308 H   0  0  0  0  0  0  0  0  0  0  0  0
    2.7583   43.0947   51.6544 H   0  0  0  0  0  0  0  0  0  0  0  0
    4.4118   44.5631   55.6086 H   0  0  0  0  0  0  0  0  0  0  0  0
    6.6995   45.5311   55.6597 H   0  0  0  0  0  0  0  0  0  0  0  0
   10.9810   47.1330   52.4580 H   0  0  0  0  0  0  0  0  0  0  0  0
    6.5591   46.1034   51.3749 H   0  0  0  0  0  0  0  0  0  0  0  0
    1.9982   44.9006   55.2700 H   0  0  0  0  0  0  0  0  0  0  0  0
    1.3646   45.7135   53.8327 H   0  0  0  0  0  0  0  0  0  0  0  0
  1  2  1  0
  2  3  1  0
  3  4  1  0
  4  5  1  0
  5  6  1  0
  6  7  1  0
  7  8  1  0
  8  9  1  0
  9 10  1  0
 10 11  1  0
 11 12  2  0
 11 13  1  0
 13 14  1  0
 14 15  1  0
 15 16  1  0
 16 17  1  0
 17 18  2  0
 18 19  1  0
 19 20  2  0
 20 21  1  0
 21 22  1  0
 22 23  2  0
 23 24  1  0
 24 25  1  0
 20 26  1  0
 26 27  2  0
 27 28  1  0
 16 29  1  0
  6  2  1  0
 29 13  1  0
 10  5  1  0
 27 17  1  0
 25 21  2  0
  1 30  1  0
  1 31  1  0
  1 32  1  0
  3 33  1  0
  3 34  1  0
  4 35  1  0
  4 36  1  0
  5 37  1  6
  6 38  1  6
  7 39  1  0
  7 40  1  0
  8 41  1  0
  8 42  1  0
  9 43  1  0
  9 44  1  0
 13 45  1  1
 14 46  1  0
 14 47  1  0
 15 48  1  0
 15 49  1  0
 18 50  1  0
 19 51  1  0
 24 52  1  0
 26 53  1  0
 29 54  1  0
 29 55  1  0
M  END
>  <meeko>  (3) 
{"is_sidechain": [false], "free_energy": -8.425, "intermolecular_energy": -10.175, "internal_energy": -0.752}

$$$$
ligand_93_conformer_2_docked
     RDKit          3D

 55 59  0  0  0  0  0  0  0  0999 V2000
   -3.7800   46.8400   56.0690 C   0  0  0  0  0  0  0  0  0  0  0  0
   -2.6150   46.0030   55.7410 N   0  0  0  0  0  0  0  0  0  0  0  0
   -2.4120   44.8800   56.6650 C   0  0  0  0  0  0  0  0  0  0  0  0
   -1.7270   43.7630   55.8660 C   0  0  0  0  0  0  0  0  0  0  0  0
   -1.4970   44.3640   54.4810 C   0  0  2  0  0  0  0  0  0  0  0  0
   -2.5980   45.4240   54.3900 C   0  0  1  0  0  0  0  0  0  0  0  0
   -3.9770   44.8190   53.9760 C   0  0  0  0  0  0  0  0  0  0  0  0
   -3.9100   43.7000   52.9230 C   0  0  0  0  0  0  0  0  0  0  0  0
   -2.5240   43.5360   52.3170 C   0  0  0  0  0  0  0  0  0  0  0  0
   -1.5250   43.3800   53.3790 N   0  0  0  0  0  0  0  0  0  0  0  0
   -0.3380   42.6180   53.0680 C   0  0  0  0  0  0  0  0  0  0  0  0
   -0.2670   41.4100   53.4320 O   0  0  0  0  0  0  0  0  0  0  0  0
    0.8030   43.2150   52.2770 C   0  0  1  0  0  0  0  0  0  0  0  0
    0.4600   44.5500   51.6110 C   0  0  0  0  0  0  0  0  0  0  0  0
    1.7790   45.3050   51.5500 C   0  0  0  0  0  0  0  0  0  0  0  0
    2.6290   44.7090   52.5750 N   0  0  0  0  0  0  0  0  0  0  0  0
    3.9380   45.2230   52.9310 C   0  0  0  0  0  0  0  0  0  0  0  0
    4.9130   45.4210   51.9340 C   0  0  0  0  0  0  0  0  0  0  0  0
    6.1820   45.9110   52.2540 C   0  0  0  0  0  0  0  0  0  0  0  0
    6.5100   46.2200   53.5810 C   0  0  0  0  0  0  0  0  0  0  0  0
    7.8520   46.7390   53.9200 C   0  0  0  0  0  0  0  0  0  0  0  0
    8.1130   47.5620   54.9570 N   0  0  0  0  0  0  0  0  0  0  0  0
    9.4170   47.7790   54.9000 N   0  0  0  0  0  0  0  0  0  0  0  0
    9.9210   47.1180   53.8740 N   0  0  0  0  0  0  0  0  0  0  0  0
    8.9760   46.4540   53.2330 N   0  0  0  0  0  0  0  0  0  0  0  0
    5.5450   46.0320   54.5810 C   0  0  0  0  0  0  0  0  0  0  0  0
    4.2730   45.5420   54.2670 C   0  0  0  0  0  0  0  0  0  0  0  0
    3.3810   45.4060   55.2780 F   0  0  0  0  0  0  0  0  0  0  0  0
    2.0220   43.5150   53.1480 C   0  0  0  0  0  0  0  0  0  0  0  0
   -3.8825   46.9137   57.1617 H   0  0  0  0  0  0  0  0  0  0  0  0
   -3.6401   47.8454   55.6452 H   0  0  0  0  0  0  0  0  0  0  0  0
   -4.6882   46.3866   55.6452 H   0  0  0  0  0  0  0  0  0  0  0  0
   -1.7726   45.1915   57.5041 H   0  0  0  0  0  0  0  0  0  0  0  0
   -3.3698   44.5352   57.0818 H   0  0  0  0  0  0  0  0  0  0  0  0
   -0.7704   43.4834   56.3315 H   0  0  0  0  0  0  0  0  0  0  0  0
   -2.3337   42.8463   55.8270 H   0  0  0  0  0  0  0  0  0  0  0  0
   -0.4860   44.7817   54.3653 H   0  0  0  0  0  0  0  0  0  0  0  0
   -2.4060   46.1746   53.6092 H   0  0  0  0  0  0  0  0  0  0  0  0
   -4.4539   44.4092   54.8786 H   0  0  0  0  0  0  0  0  0  0  0  0
   -4.5449   45.6400   53.5141 H   0  0  0  0  0  0  0  0  0  0  0  0
   -4.1983   42.7518   53.4003 H   0  0  0  0  0  0  0  0  0  0  0  0
   -4.5953   43.9742   52.1074 H   0  0  0  0  0  0  0  0  0  0  0  0
   -2.5119   42.6448   51.6723 H   0  0  0  0  0  0  0  0  0  0  0  0
   -2.2823   44.4303   51.7238 H   0  0  0  0  0  0  0  0  0  0  0  0
    1.0109   42.4426   51.5219 H   0  0  0  0  0  0  0  0  0  0  0  0
    0.0600   44.3867   50.5994 H   0  0  0  0  0  0  0  0  0  0  0  0
   -0.3104   45.1049   52.1665 H   0  0  0  0  0  0  0  0  0  0  0  0
    2.2394   45.1912   50.5575 H   0  0  0  0  0  0  0  0  0  0  0  0
    1.6358   46.3822   51.7205 H   0  0  0  0  0  0  0  0  0  0  0  0
    4.6717   45.1862   50.8868 H   0  0  0  0  0  0  0  0  0  0  0  0
    6.9284   46.0551   51.4590 H   0  0  0  0  0  0  0  0  0  0  0  0
   10.9300   47.1200   53.6060 H   0  0  0  0  0  0  0  0  0  0  0  0
    5.7915   46.2729   55.6256 H   0  0  0  0  0  0  0  0  0  0  0  0
    2.7299   42.6735   53.1206 H   0  0  0  0  0  0  0  0  0  0  0  0
    1.7424   43.6660   54.2011 H   0  0  0  0  0  0  0  0  0  0  0  0
  1  2  1  0
  2  3  1  0
  3  4  1  0
  4  5  1  0
  5  6  1  0
  6  7  1  0
  7  8  1  0
  8  9  1  0
  9 10  1  0
 10 11  1  0
 11 12  2  0
 11 13  1  0
 13 14  1  0
 14 15  1  0
 15 16  1  0
 16 17  1  0
 17 18  2  0
 18 19  1  0
 19 20  2  0
 20 21  1  0
 21 22  1  0
 22 23  2  0
 23 24  1  0
 24 25  1  0
 20 26  1  0
 26 27  2  0
 27 28  1  0
 16 29  1  0
  6  2  1  0
 29 13  1  0
 10  5  1  0
 27 17  1  0
 25 21  2  0
  1 30  1  0
  1 31  1  0
  1 32  1  0
  3 33  1  0
  3 34  1  0
  4 35  1  0
  4 36  1  0
  5 37  1  1
  6 38  1  6
  7 39  1  0
  7 40  1  0
  8 41  1  0
  8 42  1  0
  9 43  1  0
  9 44  1  0
 13 45  1  6
 14 46  1  0
 14 47  1  0
 15 48  1  0
 15 49  1  0
 18 50  1  0
 19 51  1  0
 24 52  1  0
 26 53  1  0
 29 54  1  0
 29 55  1  0
M  END
>  <meeko>  (4) 
{"is_sidechain": [false], "free_energy": -8.255, "intermolecular_energy": -10.18, "internal_energy": -0.538}

$$$$
ligand_93_conformer_2_docked
     RDKit          3D

 55 59  0  0  0  0  0  0  0  0999 V2000
   -3.8780   47.1800   49.5550 C   0  0  0  0  0  0  0  0  0  0  0  0
   -3.1350   46.9320   50.8000 N   0  0  0  0  0  0  0  0  0  0  0  0
   -3.9450   47.0860   52.0160 C   0  0  0  0  0  0  0  0  0  0  0  0
   -3.3450   46.1490   53.0720 C   0  0  0  0  0  0  0  0  0  0  0  0
   -2.1230   45.5340   52.3960 C   0  0  2  0  0  0  0  0  0  0  0  0
   -2.4850   45.6170   50.9100 C   0  0  1  0  0  0  0  0  0  0  0  0
   -3.4130   44.4460   50.4550 C   0  0  0  0  0  0  0  0  0  0  0  0
   -3.0960   43.0790   51.0840 C   0  0  0  0  0  0  0  0  0  0  0  0
   -1.7950   43.0750   51.8740 C   0  0  0  0  0  0  0  0  0  0  0  0
   -1.7960   44.1670   52.8530 N   0  0  0  0  0  0  0  0  0  0  0  0
   -1.0220   43.9800   54.0580 C   0  0  0  0  0  0  0  0  0  0  0  0
   -1.1860   42.9290   54.7380 O   0  0  0  0  0  0  0  0  0  0  0  0
    0.0130   44.9890   54.5010 C   0  0  1  0  0  0  0  0  0  0  0  0
    0.4590   44.8150   55.9550 C   0  0  0  0  0  0  0  0  0  0  0  0
    1.8960   45.3160   55.9830 C   0  0  0  0  0  0  0  0  0  0  0  0
    2.3750   45.2320   54.6090 N   0  0  0  0  0  0  0  0  0  0  0  0
    3.7470   45.5020   54.2200 C   0  0  0  0  0  0  0  0  0  0  0  0
    4.3670   46.7060   54.6090 C   0  0  0  0  0  0  0  0  0  0  0  0
    5.6850   46.9880   54.2430 C   0  0  0  0  0  0  0  0  0  0  0  0
    6.4220   46.0740   53.4780 C   0  0  0  0  0  0  0  0  0  0  0  0
    7.8160   46.3720   53.0900 C   0  0  0  0  0  0  0  0  0  0  0  0
    8.2790   46.3490   51.8230 N   0  0  0  0  0  0  0  0  0  0  0  0
    9.5590   46.6710   51.9200 N   0  0  0  0  0  0  0  0  0  0  0  0
    9.8560   46.8800   53.1910 N   0  0  0  0  0  0  0  0  0  0  0  0
    8.7950   46.7030   53.9560 N   0  0  0  0  0  0  0  0  0  0  0  0
    5.8170   44.8700   53.0890 C   0  0  0  0  0  0  0  0  0  0  0  0
    4.4970   44.5810   53.4530 C   0  0  0  0  0  0  0  0  0  0  0  0
    3.9810   43.3900   53.0640 F   0  0  0  0  0  0  0  0  0  0  0  0
    1.3000   44.8990   53.6840 C   0  0  0  0  0  0  0  0  0  0  0  0
   -4.8959   47.5197   49.7969 H   0  0  0  0  0  0  0  0  0  0  0  0
   -3.3625   47.9548   48.9685 H   0  0  0  0  0  0  0  0  0  0  0  0
   -3.9313   46.2509   48.9685 H   0  0  0  0  0  0  0  0  0  0  0  0
   -3.9051   48.1275   52.3678 H   0  0  0  0  0  0  0  0  0  0  0  0
   -4.9987   46.8372   51.8216 H   0  0  0  0  0  0  0  0  0  0  0  0
   -3.0491   46.7138   53.9683 H   0  0  0  0  0  0  0  0  0  0  0  0
   -4.0630   45.3859   53.4069 H   0  0  0  0  0  0  0  0  0  0  0  0
   -1.1933   46.0669   52.6443 H   0  0  0  0  0  0  0  0  0  0  0  0
   -1.6108   45.5186   50.2496 H   0  0  0  0  0  0  0  0  0  0  0  0
   -4.4481   44.7100   50.7176 H   0  0  0  0  0  0  0  0  0  0  0  0
   -3.2510   44.3299   49.3732 H   0  0  0  0  0  0  0  0  0  0  0  0
   -3.9183   42.8058   51.7616 H   0  0  0  0  0  0  0  0  0  0  0  0
   -2.9839   42.3567   50.2620 H   0  0  0  0  0  0  0  0  0  0  0  0
   -1.6920   42.1146   52.4004 H   0  0  0  0  0  0  0  0  0  0  0  0
   -0.9525   43.2142   51.1806 H   0  0  0  0  0  0  0  0  0  0  0  0
   -0.5018   45.9510   54.3615 H   0  0  0  0  0  0  0  0  0  0  0  0
   -0.1730   45.4126   56.6284 H   0  0  0  0  0  0  0  0  0  0  0  0
    0.3762   43.7714   56.2929 H   0  0  0  0  0  0  0  0  0  0  0  0
    1.9316   46.3566   56.3377 H   0  0  0  0  0  0  0  0  0  0  0  0
    2.5188   44.7187   56.6651 H   0  0  0  0  0  0  0  0  0  0  0  0
    3.8042   47.4352   55.2103 H   0  0  0  0  0  0  0  0  0  0  0  0
    6.1481   47.9348   54.5577 H   0  0  0  0  0  0  0  0  0  0  0  0
   10.8020   47.1480   53.5410 H   0  0  0  0  0  0  0  0  0  0  0  0
    6.3869   44.1440   52.4905 H   0  0  0  0  0  0  0  0  0  0  0  0
    1.2759   45.6151   52.8494 H   0  0  0  0  0  0  0  0  0  0  0  0
    1.4350   43.8991   53.2459 H   0  0  0  0  0  0  0  0  0  0  0  0
  1  2  1  0
  2  3  1  0
  3  4  1  0
  4  5  1  0
  5  6  1  0
  6  7  1  0
  7  8  1  0
  8  9  1  0
  9 10  1  0
 10 11  1  0
 11 12  2  0
 11 13  1  0
 13 14  1  0
 14 15  1  0
 15 16  1  0
 16 17  1  0
 17 18  2  0
 18 19  1  0
 19 20  2  0
 20 21  1  0
 21 22  1  0
 22 23  2  0
 23 24  1  0
 24 25  1  0
 20 26  1  0
 26 27  2  0
 27 28  1  0
 16 29  1  0
  6  2  1  0
 29 13  1  0
 10  5  1  0
 27 17  1  0
 25 21  2  0
  1 30  1  0
  1 31  1  0
  1 32  1  0
  3 33  1  0
  3 34  1  0
  4 35  1  0
  4 36  1  0
  5 37  1  6
  6 38  1  6
  7 39  1  0
  7 40  1  0
  8 41  1  0
  8 42  1  0
  9 43  1  0
  9 44  1  0
 13 45  1  1
 14 46  1  0
 14 47  1  0
 15 48  1  0
 15 49  1  0
 18 50  1  0
 19 51  1  0
 24 52  1  0
 26 53  1  0
 29 54  1  0
 29 55  1  0
M  END
>  <meeko>  (5) 
{"is_sidechain": [false], "free_energy": -8.016, "intermolecular_energy": -9.63, "internal_energy": -0.793}

$$$$
