ligand_20_conformer_5_docked
     RDKit          3D

 52 56  0  0  0  0  0  0  0  0999 V2000
    4.6070   44.9220   55.5750 O   0  0  0  0  0  0  0  0  0  0  0  0
    3.8640   45.5300   54.7570 C   0  0  0  0  0  0  0  0  0  0  0  0
    4.4330   46.4190   53.7810 N   0  0  0  0  0  0  0  0  0  0  0  0
    5.8500   46.5800   53.5980 C   0  0  0  0  0  0  0  0  0  0  0  0
    6.6380   47.1840   54.5260 N   0  0  0  0  0  0  0  0  0  0  0  0
    7.8700   47.0600   54.0060 C   0  0  0  0  0  0  0  0  0  0  0  0
    9.0660   47.5040   54.5640 C   0  0  0  0  0  0  0  0  0  0  0  0
   10.2530   47.2550   53.8540 C   0  0  0  0  0  0  0  0  0  0  0  0
   10.2170   46.5690   52.6200 C   0  0  0  0  0  0  0  0  0  0  0  0
    8.9920   46.1300   52.0850 C   0  0  0  0  0  0  0  0  0  0  0  0
    7.8250   46.4010   52.8110 C   0  0  0  0  0  0  0  0  0  0  0  0
    6.5400   46.0910   52.5270 N   0  0  0  0  0  0  0  0  0  0  0  0
    5.9920   45.4160   51.3310 C   0  0  0  0  0  0  0  0  0  0  0  0
    5.4500   44.0270   51.6550 C   0  0  0  0  0  0  0  0  0  0  0  0
    5.6980   43.2040   50.4040 C   0  0  0  0  0  0  0  0  0  0  0  0
    6.9490   43.7880   49.7630 C   0  0  0  0  0  0  0  0  0  0  0  0
    7.0310   45.2440   50.2150 C   0  0  0  0  0  0  0  0  0  0  0  0
    2.4080   45.3380   54.8250 C   0  0  0  0  0  0  0  0  0  0  0  0
    1.6420   45.3000   55.9690 C   0  0  0  0  0  0  0  0  0  0  0  0
    0.3990   45.1100   55.6040 O   0  0  0  0  0  0  0  0  0  0  0  0
    0.3840   45.0380   54.2900 C   0  0  0  0  0  0  0  0  0  0  0  0
   -0.8720   44.7940   53.4940 C   0  0  0  0  0  0  0  0  0  0  0  0
   -1.3480   43.3390   53.6380 C   0  0  0  0  0  0  0  0  0  0  0  0
   -0.5550   42.4040   52.7160 C   0  0  0  0  0  0  0  0  0  0  0  0
   -0.6630   42.8240   51.3680 O   0  0  0  0  0  0  0  0  0  0  0  0
   -0.0160   44.0700   51.1990 C   0  0  0  0  0  0  0  0  0  0  0  0
   -0.7170   45.1760   52.0080 C   0  0  0  0  0  0  0  0  0  0  0  0
    1.6150   45.1690   53.7500 N   0  0  0  0  0  0  0  0  0  0  0  0
    3.7800   46.9330   53.1500 H   0  0  0  0  0  0  0  0  0  0  0  0
    9.0812   48.0322   55.5287 H   0  0  0  0  0  0  0  0  0  0  0  0
   11.2159   47.5964   54.2618 H   0  0  0  0  0  0  0  0  0  0  0  0
   11.1523   46.3768   52.0739 H   0  0  0  0  0  0  0  0  0  0  0  0
    8.9519   45.5910   51.1269 H   0  0  0  0  0  0  0  0  0  0  0  0
    5.1828   46.0773   50.9876 H   0  0  0  0  0  0  0  0  0  0  0  0
    5.9843   43.5947   52.5139 H   0  0  0  0  0  0  0  0  0  0  0  0
    4.3843   44.0534   51.9264 H   0  0  0  0  0  0  0  0  0  0  0  0
    5.8596   42.1480   50.6663 H   0  0  0  0  0  0  0  0  0  0  0  0
    4.8381   43.2404   49.7190 H   0  0  0  0  0  0  0  0  0  0  0  0
    7.8398   43.2360   50.0972 H   0  0  0  0  0  0  0  0  0  0  0  0
    6.9042   43.7148   48.6664 H   0  0  0  0  0  0  0  0  0  0  0  0
    8.0383   45.4667   50.5967 H   0  0  0  0  0  0  0  0  0  0  0  0
    6.8323   45.9306   49.3789 H   0  0  0  0  0  0  0  0  0  0  0  0
    2.0076   45.4093   57.0007 H   0  0  0  0  0  0  0  0  0  0  0  0
   -1.6425   45.4562   53.9157 H   0  0  0  0  0  0  0  0  0  0  0  0
   -1.2095   43.0174   54.6808 H   0  0  0  0  0  0  0  0  0  0  0  0
   -2.4100   43.2896   53.3556 H   0  0  0  0  0  0  0  0  0  0  0  0
    0.5037   42.4147   53.0143 H   0  0  0  0  0  0  0  0  0  0  0  0
   -0.9650   41.3871   52.8045 H   0  0  0  0  0  0  0  0  0  0  0  0
    1.0262   43.9821   51.5397 H   0  0  0  0  0  0  0  0  0  0  0  0
   -0.0545   44.3405   50.1335 H   0  0  0  0  0  0  0  0  0  0  0  0
   -0.1218   46.0984   51.9386 H   0  0  0  0  0  0  0  0  0  0  0  0
   -1.7231   45.3194   51.5871 H   0  0  0  0  0  0  0  0  0  0  0  0
  1  2  2  0
  2  3  1  0
  3  4  1  0
  4  5  2  0
  5  6  1  0
  6  7  2  0
  7  8  1  0
  8  9  2  0
  9 10  1  0
 10 11  2  0
 11 12  1  0
 12 13  1  0
 13 14  1  0
 14 15  1  0
 15 16  1  0
 16 17  1  0
  2 18  1  0
 18 19  2  0
 19 20  1  0
 20 21  1  0
 21 22  1  0
 22 23  1  0
 23 24  1  0
 24 25  1  0
 25 26  1  0
 26 27  1  0
 21 28  2  0
 12  4  1  0
 17 13  1  0
 28 18  1  0
 11  6  1  0
 27 22  1  0
  3 29  1  0
  7 30  1  0
  8 31  1  0
  9 32  1  0
 10 33  1  0
 13 34  1  0
 14 35  1  0
 14 36  1  0
 15 37  1  0
 15 38  1  0
 16 39  1  0
 16 40  1  0
 17 41  1  0
 17 42  1  0
 19 43  1  0
 22 44  1  0
 23 45  1  0
 23 46  1  0
 24 47  1  0
 24 48  1  0
 26 49  1  0
 26 50  1  0
 27 51  1  0
 27 52  1  0
M  END
>  <meeko>  (1) 
{"is_sidechain": [false], "free_energy": -10.126, "intermolecular_energy": -12.494, "internal_energy": -0.129}

$$$$
ligand_20_conformer_5_docked
     RDKit          3D

 52 56  0  0  0  0  0  0  0  0999 V2000
    4.1480   44.9230   54.8420 O   0  0  0  0  0  0  0  0  0  0  0  0
    3.5340   45.4520   53.8760 C   0  0  0  0  0  0  0  0  0  0  0  0
    4.2320   46.3030   52.9500 N   0  0  0  0  0  0  0  0  0  0  0  0
    5.6540   46.5060   52.9900 C   0  0  0  0  0  0  0  0  0  0  0  0
    6.2630   47.1780   54.0030 N   0  0  0  0  0  0  0  0  0  0  0  0
    7.5660   47.0760   53.6950 C   0  0  0  0  0  0  0  0  0  0  0  0
    8.6420   47.5860   54.4170 C   0  0  0  0  0  0  0  0  0  0  0  0
    9.9360   47.3490   53.9210 C   0  0  0  0  0  0  0  0  0  0  0  0
   10.1200   46.6100   52.7310 C   0  0  0  0  0  0  0  0  0  0  0  0
    9.0120   46.1050   52.0270 C   0  0  0  0  0  0  0  0  0  0  0  0
    7.7350   46.3650   52.5410 C   0  0  0  0  0  0  0  0  0  0  0  0
    6.5230   45.9960   52.0690 N   0  0  0  0  0  0  0  0  0  0  0  0
    6.1960   45.2520   50.8350 C   0  0  0  0  0  0  0  0  0  0  0  0
    5.6710   43.8500   51.1330 C   0  0  0  0  0  0  0  0  0  0  0  0
    6.1460   42.9950   49.9720 C   0  0  0  0  0  0  0  0  0  0  0  0
    7.4540   43.6160   49.5050 C   0  0  0  0  0  0  0  0  0  0  0  0
    7.4020   45.0900   49.8990 C   0  0  0  0  0  0  0  0  0  0  0  0
    2.0920   45.2090   53.7170 C   0  0  0  0  0  0  0  0  0  0  0  0
    1.2930   45.6790   52.6980 C   0  0  0  0  0  0  0  0  0  0  0  0
    0.0780   45.2450   52.9210 O   0  0  0  0  0  0  0  0  0  0  0  0
    0.1140   44.5310   54.0250 C   0  0  0  0  0  0  0  0  0  0  0  0
   -1.1080   43.8830   54.6260 C   0  0  0  0  0  0  0  0  0  0  0  0
   -2.3530   44.1320   53.7580 C   0  0  0  0  0  0  0  0  0  0  0  0
   -2.9370   45.5270   54.0160 C   0  0  0  0  0  0  0  0  0  0  0  0
   -3.2550   45.6880   55.3860 O   0  0  0  0  0  0  0  0  0  0  0  0
   -2.0700   45.6860   56.1580 C   0  0  0  0  0  0  0  0  0  0  0  0
   -1.3570   44.3240   56.0820 C   0  0  0  0  0  0  0  0  0  0  0  0
    1.3490   44.4790   54.5680 N   0  0  0  0  0  0  0  0  0  0  0  0
    3.6780   46.7520   52.1890 H   0  0  0  0  0  0  0  0  0  0  0  0
    8.4847   48.1555   55.3448 H   0  0  0  0  0  0  0  0  0  0  0  0
   10.8097   47.7410   54.4623 H   0  0  0  0  0  0  0  0  0  0  0  0
   11.1367   46.4283   52.3525 H   0  0  0  0  0  0  0  0  0  0  0  0
    9.1440   45.5243   51.1021 H   0  0  0  0  0  0  0  0  0  0  0  0
    5.4219   45.8598   50.3438 H   0  0  0  0  0  0  0  0  0  0  0  0
    6.0837   43.4766   52.0818 H   0  0  0  0  0  0  0  0  0  0  0  0
    4.5760   43.8332   51.2364 H   0  0  0  0  0  0  0  0  0  0  0  0
    6.3108   41.9587   50.3022 H   0  0  0  0  0  0  0  0  0  0  0  0
    5.4019   42.9637   49.1624 H   0  0  0  0  0  0  0  0  0  0  0  0
    8.3054   43.1217   49.9958 H   0  0  0  0  0  0  0  0  0  0  0  0
    7.5827   43.5000   48.4187 H   0  0  0  0  0  0  0  0  0  0  0  0
    8.3276   45.3765   50.4197 H   0  0  0  0  0  0  0  0  0  0  0  0
    7.3053   45.7342   49.0126 H   0  0  0  0  0  0  0  0  0  0  0  0
    1.6163   46.3040   51.8525 H   0  0  0  0  0  0  0  0  0  0  0  0
   -0.9099   42.8012   54.6487 H   0  0  0  0  0  0  0  0  0  0  0  0
   -2.0735   44.0502   52.6973 H   0  0  0  0  0  0  0  0  0  0  0  0
   -3.1145   43.3815   54.0164 H   0  0  0  0  0  0  0  0  0  0  0  0
   -2.1981   46.2879   53.7245 H   0  0  0  0  0  0  0  0  0  0  0  0
   -3.8560   45.6423   53.4225 H   0  0  0  0  0  0  0  0  0  0  0  0
   -1.3938   46.4664   55.7789 H   0  0  0  0  0  0  0  0  0  0  0  0
   -2.3380   45.8802   57.2070 H   0  0  0  0  0  0  0  0  0  0  0  0
   -0.3898   44.4001   56.6004 H   0  0  0  0  0  0  0  0  0  0  0  0
   -2.0056   43.5739   56.5580 H   0  0  0  0  0  0  0  0  0  0  0  0
  1  2  2  0
  2  3  1  0
  3  4  1  0
  4  5  2  0
  5  6  1  0
  6  7  2  0
  7  8  1  0
  8  9  2  0
  9 10  1  0
 10 11  2  0
 11 12  1  0
 12 13  1  0
 13 14  1  0
 14 15  1  0
 15 16  1  0
 16 17  1  0
  2 18  1  0
 18 19  2  0
 19 20  1  0
 20 21  1  0
 21 22  1  0
 22 23  1  0
 23 24  1  0
 24 25  1  0
 25 26  1  0
 26 27  1  0
 21 28  2  0
 12  4  1  0
 17 13  1  0
 28 18  1  0
 11  6  1  0
 27 22  1  0
  3 29  1  0
  7 30  1  0
  8 31  1  0
  9 32  1  0
 10 33  1  0
 13 34  1  0
 14 35  1  0
 14 36  1  0
 15 37  1  0
 15 38  1  0
 16 39  1  0
 16 40  1  0
 17 41  1  0
 17 42  1  0
 19 43  1  0
 22 44  1  0
 23 45  1  0
 23 46  1  0
 24 47  1  0
 24 48  1  0
 26 49  1  0
 26 50  1  0
 27 51  1  0
 27 52  1  0
M  END
>  <meeko>  (2) 
{"is_sidechain": [false], "free_energy": -10.028, "intermolecular_energy": -12.416, "internal_energy": -0.086}

$$$$
ligand_20_conformer_5_docked
     RDKit          3D

 52 56  0  0  0  0  0  0  0  0999 V2000
    4.5230   44.5470   55.2850 O   0  0  0  0  0  0  0  0  0  0  0  0
    3.7920   45.5110   54.9310 C   0  0  0  0  0  0  0  0  0  0  0  0
    4.3700   46.6730   54.3120 N   0  0  0  0  0  0  0  0  0  0  0  0
    5.7590   46.7630   53.9560 C   0  0  0  0  0  0  0  0  0  0  0  0
    6.6970   47.2550   54.8070 N   0  0  0  0  0  0  0  0  0  0  0  0
    7.8420   47.0950   54.1250 C   0  0  0  0  0  0  0  0  0  0  0  0
    9.1260   47.4290   54.5480 C   0  0  0  0  0  0  0  0  0  0  0  0
   10.1950   47.1590   53.6760 C   0  0  0  0  0  0  0  0  0  0  0  0
    9.9570   46.5630   52.4180 C   0  0  0  0  0  0  0  0  0  0  0  0
    8.6480   46.2340   52.0220 C   0  0  0  0  0  0  0  0  0  0  0  0
    7.6030   46.5220   52.9080 C   0  0  0  0  0  0  0  0  0  0  0  0
    6.2740   46.3080   52.7760 N   0  0  0  0  0  0  0  0  0  0  0  0
    5.5360   45.7500   51.6240 C   0  0  0  0  0  0  0  0  0  0  0  0
    4.1920   46.4420   51.4140 C   0  0  0  0  0  0  0  0  0  0  0  0
    3.2740   45.3670   50.8630 C   0  0  0  0  0  0  0  0  0  0  0  0
    3.7680   44.0540   51.4540 C   0  0  0  0  0  0  0  0  0  0  0  0
    5.2490   44.2490   51.7700 C   0  0  0  0  0  0  0  0  0  0  0  0
    2.3430   45.4460   55.1780 C   0  0  0  0  0  0  0  0  0  0  0  0
    1.3550   45.3720   54.2210 C   0  0  0  0  0  0  0  0  0  0  0  0
    0.2050   45.3330   54.8470 O   0  0  0  0  0  0  0  0  0  0  0  0
    0.4600   45.3760   56.1370 C   0  0  0  0  0  0  0  0  0  0  0  0
   -0.6190   45.3800   57.1890 C   0  0  0  0  0  0  0  0  0  0  0  0
   -1.9160   44.7470   56.6570 C   0  0  0  0  0  0  0  0  0  0  0  0
   -2.7100   45.7460   55.8060 C   0  0  0  0  0  0  0  0  0  0  0  0
   -3.0050   46.9120   56.5510 O   0  0  0  0  0  0  0  0  0  0  0  0
   -1.8100   47.6130   56.8410 C   0  0  0  0  0  0  0  0  0  0  0  0
   -0.8890   46.7880   57.7570 C   0  0  0  0  0  0  0  0  0  0  0  0
    1.7830   45.4520   56.4010 N   0  0  0  0  0  0  0  0  0  0  0  0
    3.7340   47.4640   54.0720 H   0  0  0  0  0  0  0  0  0  0  0  0
    9.2981   47.8890   55.5322 H   0  0  0  0  0  0  0  0  0  0  0  0
   11.2225   47.4133   53.9751 H   0  0  0  0  0  0  0  0  0  0  0  0
   10.8006   46.3547   51.7435 H   0  0  0  0  0  0  0  0  0  0  0  0
    8.4515   45.7650   51.0466 H   0  0  0  0  0  0  0  0  0  0  0  0
    6.1993   45.9213   50.7633 H   0  0  0  0  0  0  0  0  0  0  0  0
    3.8041   46.8291   52.3678 H   0  0  0  0  0  0  0  0  0  0  0  0
    4.2739   47.3020   50.7330 H   0  0  0  0  0  0  0  0  0  0  0  0
    2.2348   45.5575   51.1691 H   0  0  0  0  0  0  0  0  0  0  0  0
    3.2902   45.3466   49.7633 H   0  0  0  0  0  0  0  0  0  0  0  0
    3.2115   43.8180   52.3730 H   0  0  0  0  0  0  0  0  0  0  0  0
    3.6181   43.2210   50.7514 H   0  0  0  0  0  0  0  0  0  0  0  0
    5.4642   43.9198   52.7973 H   0  0  0  0  0  0  0  0  0  0  0  0
    5.8803   43.6571   51.0910 H   0  0  0  0  0  0  0  0  0  0  0  0
    1.5043   45.3498   53.1314 H   0  0  0  0  0  0  0  0  0  0  0  0
   -0.2465   44.7652   58.0216 H   0  0  0  0  0  0  0  0  0  0  0  0
   -1.6621   43.8722   56.0404 H   0  0  0  0  0  0  0  0  0  0  0  0
   -2.5364   44.4487   57.5150 H   0  0  0  0  0  0  0  0  0  0  0  0
   -2.1145   46.0222   54.9233 H   0  0  0  0  0  0  0  0  0  0  0  0
   -3.6546   45.2752   55.4961 H   0  0  0  0  0  0  0  0  0  0  0  0
   -1.2820   47.8267   55.8999 H   0  0  0  0  0  0  0  0  0  0  0  0
   -2.0714   48.5470   57.3600 H   0  0  0  0  0  0  0  0  0  0  0  0
    0.0695   47.3167   57.8659 H   0  0  0  0  0  0  0  0  0  0  0  0
   -1.3921   46.6715   58.7282 H   0  0  0  0  0  0  0  0  0  0  0  0
  1  2  2  0
  2  3  1  0
  3  4  1  0
  4  5  2  0
  5  6  1  0
  6  7  2  0
  7  8  1  0
  8  9  2  0
  9 10  1  0
 10 11  2  0
 11 12  1  0
 12 13  1  0
 13 14  1  0
 14 15  1  0
 15 16  1  0
 16 17  1  0
  2 18  1  0
 18 19  2  0
 19 20  1  0
 20 21  1  0
 21 22  1  0
 22 23  1  0
 23 24  1  0
 24 25  1  0
 25 26  1  0
 26 27  1  0
 21 28  2  0
 12  4  1  0
 17 13  1  0
 28 18  1  0
 11  6  1  0
 27 22  1  0
  3 29  1  0
  7 30  1  0
  8 31  1  0
  9 32  1  0
 10 33  1  0
 13 34  1  0
 14 35  1  0
 14 36  1  0
 15 37  1  0
 15 38  1  0
 16 39  1  0
 16 40  1  0
 17 41  1  0
 17 42  1  0
 19 43  1  0
 22 44  1  0
 23 45  1  0
 23 46  1  0
 24 47  1  0
 24 48  1  0
 26 49  1  0
 26 50  1  0
 27 51  1  0
 27 52  1  0
M  END
>  <meeko>  (3) 
{"is_sidechain": [false], "free_energy": -9.919, "intermolecular_energy": -11.777, "internal_energy": -0.592}

$$$$
ligand_20_conformer_5_docked
     RDKit          3D

 52 56  0  0  0  0  0  0  0  0999 V2000
    2.7240   47.1990   53.1030 O   0  0  0  0  0  0  0  0  0  0  0  0
    3.6190   46.3560   53.3830 C   0  0  0  0  0  0  0  0  0  0  0  0
    3.3310   45.2560   54.2640 N   0  0  0  0  0  0  0  0  0  0  0  0
    2.0160   44.9840   54.7740 C   0  0  0  0  0  0  0  0  0  0  0  0
    1.5750   45.4920   55.9540 N   0  0  0  0  0  0  0  0  0  0  0  0
    0.3030   45.0640   56.0150 C   0  0  0  0  0  0  0  0  0  0  0  0
   -0.6210   45.3130   57.0270 C   0  0  0  0  0  0  0  0  0  0  0  0
   -1.9120   44.7780   56.8820 C   0  0  0  0  0  0  0  0  0  0  0  0
   -2.2470   44.0200   55.7380 C   0  0  0  0  0  0  0  0  0  0  0  0
   -1.2910   43.7880   54.7320 C   0  0  0  0  0  0  0  0  0  0  0  0
   -0.0100   44.3270   54.9080 C   0  0  0  0  0  0  0  0  0  0  0  0
    1.0740   44.2570   54.1030 N   0  0  0  0  0  0  0  0  0  0  0  0
    1.2310   43.5400   52.8210 C   0  0  0  0  0  0  0  0  0  0  0  0
    2.5720   42.8160   52.7290 C   0  0  0  0  0  0  0  0  0  0  0  0
    2.9460   42.8600   51.2590 C   0  0  0  0  0  0  0  0  0  0  0  0
    2.3360   44.1420   50.7120 C   0  0  0  0  0  0  0  0  0  0  0  0
    1.1400   44.4700   51.6030 C   0  0  0  0  0  0  0  0  0  0  0  0
    4.9670   46.5200   52.8180 C   0  0  0  0  0  0  0  0  0  0  0  0
    5.5600   45.7090   51.8750 C   0  0  0  0  0  0  0  0  0  0  0  0
    6.7550   46.1900   51.6400 O   0  0  0  0  0  0  0  0  0  0  0  0
    6.9030   47.2560   52.3970 C   0  0  0  0  0  0  0  0  0  0  0  0
    8.1700   48.0730   52.4280 C   0  0  0  0  0  0  0  0  0  0  0  0
    9.1340   47.6460   51.3090 C   0  0  0  0  0  0  0  0  0  0  0  0
    9.9120   46.3830   51.7020 C   0  0  0  0  0  0  0  0  0  0  0  0
   10.6230   46.5910   52.9080 O   0  0  0  0  0  0  0  0  0  0  0  0
    9.7140   46.7570   53.9800 C   0  0  0  0  0  0  0  0  0  0  0  0
    8.8690   48.0310   53.8020 C   0  0  0  0  0  0  0  0  0  0  0  0
    5.8160   47.5060   53.1580 N   0  0  0  0  0  0  0  0  0  0  0  0
    4.1110   44.6050   54.5010 H   0  0  0  0  0  0  0  0  0  0  0  0
   -0.3489   45.9089   57.9107 H   0  0  0  0  0  0  0  0  0  0  0  0
   -2.6663   44.9504   57.6639 H   0  0  0  0  0  0  0  0  0  0  0  0
   -3.2617   43.6085   55.6330 H   0  0  0  0  0  0  0  0  0  0  0  0
   -1.5416   43.2018   53.8356 H   0  0  0  0  0  0  0  0  0  0  0  0
    0.3994   42.8202   52.8045 H   0  0  0  0  0  0  0  0  0  0  0  0
    3.3312   43.3310   53.3360 H   0  0  0  0  0  0  0  0  0  0  0  0
    2.5102   41.7850   53.1075 H   0  0  0  0  0  0  0  0  0  0  0  0
    4.0397   42.8767   51.1427 H   0  0  0  0  0  0  0  0  0  0  0  0
    2.5755   41.9748   50.7212 H   0  0  0  0  0  0  0  0  0  0  0  0
    3.0721   44.9586   50.7488 H   0  0  0  0  0  0  0  0  0  0  0  0
    2.0278   44.0190   49.6632 H   0  0  0  0  0  0  0  0  0  0  0  0
    1.1832   45.5212   51.9242 H   0  0  0  0  0  0  0  0  0  0  0  0
    0.1924   44.3249   51.0636 H   0  0  0  0  0  0  0  0  0  0  0  0
    5.1119   44.8207   51.4058 H   0  0  0  0  0  0  0  0  0  0  0  0
    7.8739   49.1177   52.2521 H   0  0  0  0  0  0  0  0  0  0  0  0
    8.5562   47.4423   50.3954 H   0  0  0  0  0  0  0  0  0  0  0  0
    9.8534   48.4604   51.1380 H   0  0  0  0  0  0  0  0  0  0  0  0
    9.2056   45.5508   51.8377 H   0  0  0  0  0  0  0  0  0  0  0  0
   10.6302   46.1460   50.9033 H   0  0  0  0  0  0  0  0  0  0  0  0
    9.0444   45.8853   54.0207 H   0  0  0  0  0  0  0  0  0  0  0  0
   10.2893   46.8485   54.9131 H   0  0  0  0  0  0  0  0  0  0  0  0
    8.1033   48.0625   54.5911 H   0  0  0  0  0  0  0  0  0  0  0  0
    9.5431   48.8978   53.8670 H   0  0  0  0  0  0  0  0  0  0  0  0
  1  2  2  0
  2  3  1  0
  3  4  1  0
  4  5  2  0
  5  6  1  0
  6  7  2  0
  7  8  1  0
  8  9  2  0
  9 10  1  0
 10 11  2  0
 11 12  1  0
 12 13  1  0
 13 14  1  0
 14 15  1  0
 15 16  1  0
 16 17  1  0
  2 18  1  0
 18 19  2  0
 19 20  1  0
 20 21  1  0
 21 22  1  0
 22 23  1  0
 23 24  1  0
 24 25  1  0
 25 26  1  0
 26 27  1  0
 21 28  2  0
 12  4  1  0
 17 13  1  0
 28 18  1  0
 11  6  1  0
 27 22  1  0
  3 29  1  0
  7 30  1  0
  8 31  1  0
  9 32  1  0
 10 33  1  0
 13 34  1  0
 14 35  1  0
 14 36  1  0
 15 37  1  0
 15 38  1  0
 16 39  1  0
 16 40  1  0
 17 41  1  0
 17 42  1  0
 19 43  1  0
 22 44  1  0
 23 45  1  0
 23 46  1  0
 24 47  1  0
 24 48  1  0
 26 49  1  0
 26 50  1  0
 27 51  1  0
 27 52  1  0
M  END
>  <meeko>  (4) 
{"is_sidechain": [false], "free_energy": -9.762, "intermolecular_energy": -11.492, "internal_energy": -0.682}

$$$$
ligand_20_conformer_5_docked
     RDKit          3D

 52 56  0  0  0  0  0  0  0  0999 V2000
    4.6380   43.3230   52.1150 O   0  0  0  0  0  0  0  0  0  0  0  0
    4.7490   44.4050   51.4780 C   0  0  0  0  0  0  0  0  0  0  0  0
    3.5800   45.1620   51.1210 N   0  0  0  0  0  0  0  0  0  0  0  0
    2.2560   44.8090   51.5530 C   0  0  0  0  0  0  0  0  0  0  0  0
    1.4360   44.0180   50.8120 N   0  0  0  0  0  0  0  0  0  0  0  0
    0.3530   43.8830   51.5950 C   0  0  0  0  0  0  0  0  0  0  0  0
   -0.7990   43.1530   51.3170 C   0  0  0  0  0  0  0  0  0  0  0  0
   -1.8130   43.1310   52.2900 C   0  0  0  0  0  0  0  0  0  0  0  0
   -1.6490   43.8290   53.5070 C   0  0  0  0  0  0  0  0  0  0  0  0
   -0.4710   44.5550   53.7600 C   0  0  0  0  0  0  0  0  0  0  0  0
    0.5180   44.5640   52.7670 C   0  0  0  0  0  0  0  0  0  0  0  0
    1.7260   45.1710   52.7590 N   0  0  0  0  0  0  0  0  0  0  0  0
    2.3300   46.0480   53.7830 C   0  0  0  0  0  0  0  0  0  0  0  0
    3.1980   47.1400   53.1630 C   0  0  0  0  0  0  0  0  0  0  0  0
    4.3090   47.3820   54.1690 C   0  0  0  0  0  0  0  0  0  0  0  0
    4.5310   46.0510   54.8720 C   0  0  0  0  0  0  0  0  0  0  0  0
    3.2150   45.2830   54.7770 C   0  0  0  0  0  0  0  0  0  0  0  0
    6.0860   44.8770   51.0850 C   0  0  0  0  0  0  0  0  0  0  0  0
    6.9060   44.3060   50.1370 C   0  0  0  0  0  0  0  0  0  0  0  0
    8.0020   45.0200   50.0860 O   0  0  0  0  0  0  0  0  0  0  0  0
    7.8750   45.9960   50.9580 C   0  0  0  0  0  0  0  0  0  0  0  0
    8.9530   47.0190   51.2120 C   0  0  0  0  0  0  0  0  0  0  0  0
   10.1620   46.3880   51.9210 C   0  0  0  0  0  0  0  0  0  0  0  0
    9.9090   46.2490   53.4270 C   0  0  0  0  0  0  0  0  0  0  0  0
    9.6060   47.5070   54.0010 O   0  0  0  0  0  0  0  0  0  0  0  0
    8.3660   47.9760   53.5060 C   0  0  0  0  0  0  0  0  0  0  0  0
    8.4360   48.2450   51.9920 C   0  0  0  0  0  0  0  0  0  0  0  0
    6.6960   45.9530   51.6160 N   0  0  0  0  0  0  0  0  0  0  0  0
    3.7140   46.0300   50.5590 H   0  0  0  0  0  0  0  0  0  0  0  0
   -0.9122   42.6109   50.3666 H   0  0  0  0  0  0  0  0  0  0  0  0
   -2.7389   42.5674   52.1028 H   0  0  0  0  0  0  0  0  0  0  0  0
   -2.4483   43.8047   54.2624 H   0  0  0  0  0  0  0  0  0  0  0  0
   -0.3306   45.0979   54.7063 H   0  0  0  0  0  0  0  0  0  0  0  0
    1.4706   46.4876   54.3103 H   0  0  0  0  0  0  0  0  0  0  0  0
    3.6140   46.8033   52.2020 H   0  0  0  0  0  0  0  0  0  0  0  0
    2.6234   48.0549   52.9559 H   0  0  0  0  0  0  0  0  0  0  0  0
    5.2277   47.7014   53.6552 H   0  0  0  0  0  0  0  0  0  0  0  0
    4.0428   48.1762   54.8820 H   0  0  0  0  0  0  0  0  0  0  0  0
    5.3353   45.4888   54.3751 H   0  0  0  0  0  0  0  0  0  0  0  0
    4.8282   46.2007   55.9204 H   0  0  0  0  0  0  0  0  0  0  0  0
    3.3977   44.2610   54.4136 H   0  0  0  0  0  0  0  0  0  0  0  0
    2.7297   45.2053   55.7611 H   0  0  0  0  0  0  0  0  0  0  0  0
    6.6812   43.4141   49.5337 H   0  0  0  0  0  0  0  0  0  0  0  0
    9.2785   47.3822   50.2260 H   0  0  0  0  0  0  0  0  0  0  0  0
   10.3484   45.3913   51.4946 H   0  0  0  0  0  0  0  0  0  0  0  0
   11.0341   47.0417   51.7724 H   0  0  0  0  0  0  0  0  0  0  0  0
    9.0633   45.5647   53.5896 H   0  0  0  0  0  0  0  0  0  0  0  0
   10.8176   45.8522   53.9034 H   0  0  0  0  0  0  0  0  0  0  0  0
    7.5926   47.2183   53.7003 H   0  0  0  0  0  0  0  0  0  0  0  0
    8.1221   48.9195   54.0162 H   0  0  0  0  0  0  0  0  0  0  0  0
    7.4289   48.4983   51.6291 H   0  0  0  0  0  0  0  0  0  0  0  0
    9.1385   49.0750   51.8259 H   0  0  0  0  0  0  0  0  0  0  0  0
  1  2  2  0
  2  3  1  0
  3  4  1  0
  4  5  2  0
  5  6  1  0
  6  7  2  0
  7  8  1  0
  8  9  2  0
  9 10  1  0
 10 11  2  0
 11 12  1  0
 12 13  1  0
 13 14  1  0
 14 15  1  0
 15 16  1  0
 16 17  1  0
  2 18  1  0
 18 19  2  0
 19 20  1  0
 20 21  1  0
 21 22  1  0
 22 23  1  0
 23 24  1  0
 24 25  1  0
 25 26  1  0
 26 27  1  0
 21 28  2  0
 12  4  1  0
 17 13  1  0
 28 18  1  0
 11  6  1  0
 27 22  1  0
  3 29  1  0
  7 30  1  0
  8 31  1  0
  9 32  1  0
 10 33  1  0
 13 34  1  0
 14 35  1  0
 14 36  1  0
 15 37  1  0
 15 38  1  0
 16 39  1  0
 16 40  1  0
 17 41  1  0
 17 42  1  0
 19 43  1  0
 22 44  1  0
 23 45  1  0
 23 46  1  0
 24 47  1  0
 24 48  1  0
 26 49  1  0
 26 50  1  0
 27 51  1  0
 27 52  1  0
M  END
>  <meeko>  (5) 
{"is_sidechain": [false], "free_energy": -9.643, "intermolecular_energy": -11.327, "internal_energy": -0.7}

$$$$
