MODEL 1
REMARK VINA RESULT:    -8.701      0.000      0.000
REMARK INTER + INTRA:         -11.251
REMARK INTER:                 -10.735
REMARK INTRA:                  -0.516
REMARK UNBOUND:                -0.516
REMARK SMILES O=C(c1ccc2cc(-c3ccccc3)[nH]c2c1)N1CC(NC2CCOCC2)C1
REMARK SMILES IDX 1 1 2 2 18 3 19 4 20 5 28 6 3 7 4 8 17 9 5 10 16 11 6 12
REMARK SMILES IDX 15 13 7 14 8 15 9 17 10 18 14 19 11 20 13 21 12 22 21 23
REMARK SMILES IDX 22 25 23 26 27 27 24 28 26 29 25 30
REMARK H PARENT 15 16 21 24
ROOT
ATOM      1  O   UNL     1      -0.392  43.047  50.292  1.00  0.00    -0.269 OA
ATOM      2  C   UNL     1       0.203  43.337  51.364  1.00  0.00     0.254 C 
ATOM      3  N   UNL     1      -0.570  43.596  52.537  1.00  0.00    -0.335 N 
ATOM      4  C   UNL     1      -2.004  43.594  52.884  1.00  0.00     0.140 C 
ATOM      5  C   UNL     1      -1.840  44.204  54.245  1.00  0.00     0.093 C 
ATOM      6  C   UNL     1      -0.389  44.188  53.879  1.00  0.00     0.140 C 
ENDROOT
BRANCH   2   7
ATOM      7  C   UNL     1       1.677  43.447  51.373  1.00  0.00     0.042 A 
ATOM      8  C   UNL     1       2.466  42.384  50.861  1.00  0.00     0.014 A 
ATOM      9  C   UNL     1       2.313  44.590  51.910  1.00  0.00     0.040 A 
ATOM     10  C   UNL     1       3.870  42.468  50.855  1.00  0.00     0.011 A 
ATOM     11  C   UNL     1       3.705  44.638  51.892  1.00  0.00     0.047 A 
ATOM     12  C   UNL     1       4.455  43.617  51.377  1.00  0.00     0.000 A 
ATOM     13  N   UNL     1       4.491  45.627  52.349  1.00  0.00    -0.355 N 
ATOM     14  C   UNL     1       5.780  43.968  51.505  1.00  0.00     0.037 A 
ATOM     15  C   UNL     1       5.767  45.226  52.115  1.00  0.00     0.046 A 
ATOM     16  H   UNL     1       4.171  46.526  52.772  1.00  0.00     0.167 HD
BRANCH  15  17
ATOM     17  C   UNL     1       6.967  46.026  52.463  1.00  0.00    -0.002 A 
ATOM     18  C   UNL     1       7.878  46.425  51.466  1.00  0.00     0.010 A 
ATOM     19  C   UNL     1       7.215  46.401  53.797  1.00  0.00     0.010 A 
ATOM     20  C   UNL     1       9.006  47.183  51.798  1.00  0.00     0.001 A 
ATOM     21  C   UNL     1       8.345  47.156  54.124  1.00  0.00     0.001 A 
ATOM     22  C   UNL     1       9.239  47.547  53.125  1.00  0.00     0.000 A 
ENDBRANCH  15  17
ENDBRANCH   2   7
BRANCH   5  23
ATOM     23  N   UNL     1      -2.137  43.298  55.372  1.00  0.00    -0.308 NA
ATOM     24  H   UNL     1      -2.336  42.321  55.048  1.00  0.00     0.123 HD
BRANCH  23  25
ATOM     25  C   UNL     1      -3.238  43.798  56.214  1.00  0.00     0.058 C 
ATOM     26  C   UNL     1      -3.199  43.184  57.633  1.00  0.00     0.047 C 
ATOM     27  C   UNL     1      -3.191  45.340  56.274  1.00  0.00     0.047 C 
ATOM     28  C   UNL     1      -3.894  44.120  58.633  1.00  0.00     0.161 C 
ATOM     29  C   UNL     1      -2.574  45.825  57.595  1.00  0.00     0.161 C 
ATOM     30  O   UNL     1      -3.294  45.407  58.749  1.00  0.00    -0.381 OA
ENDBRANCH  23  25
ENDBRANCH   5  23
TORSDOF 4
ENDMDL
MODEL 2
REMARK VINA RESULT:    -8.684      1.731      2.294
REMARK INTER + INTRA:         -11.231
REMARK INTER:                 -10.848
REMARK INTRA:                  -0.383
REMARK UNBOUND:                -0.516
REMARK SMILES O=C(c1ccc2cc(-c3ccccc3)[nH]c2c1)N1CC(NC2CCOCC2)C1
REMARK SMILES IDX 1 1 2 2 18 3 19 4 20 5 28 6 3 7 4 8 17 9 5 10 16 11 6 12
REMARK SMILES IDX 15 13 7 14 8 15 9 17 10 18 14 19 11 20 13 21 12 22 21 23
REMARK SMILES IDX 22 25 23 26 27 27 24 28 26 29 25 30
REMARK H PARENT 15 16 21 24
ROOT
ATOM      1  O   UNL     1      -0.185  41.778  53.471  1.00  0.00    -0.269 OA
ATOM      2  C   UNL     1       0.332  42.895  53.738  1.00  0.00     0.254 C 
ATOM      3  N   UNL     1      -0.386  43.810  54.570  1.00  0.00    -0.335 N 
ATOM      4  C   UNL     1      -1.672  43.801  55.292  1.00  0.00     0.140 C 
ATOM      5  C   UNL     1      -1.652  45.253  55.672  1.00  0.00     0.093 C 
ATOM      6  C   UNL     1      -0.345  45.239  54.943  1.00  0.00     0.140 C 
ENDROOT
BRANCH   2   7
ATOM      7  C   UNL     1       1.641  43.252  53.152  1.00  0.00     0.042 A 
ATOM      8  C   UNL     1       2.046  42.664  51.925  1.00  0.00     0.014 A 
ATOM      9  C   UNL     1       2.508  44.152  53.813  1.00  0.00     0.040 A 
ATOM     10  C   UNL     1       3.285  42.991  51.345  1.00  0.00     0.011 A 
ATOM     11  C   UNL     1       3.729  44.450  53.212  1.00  0.00     0.047 A 
ATOM     12  C   UNL     1       4.100  43.895  52.019  1.00  0.00     0.000 A 
ATOM     13  N   UNL     1       4.683  45.275  53.675  1.00  0.00    -0.355 N 
ATOM     14  C   UNL     1       5.345  44.388  51.700  1.00  0.00     0.037 A 
ATOM     15  C   UNL     1       5.679  45.245  52.753  1.00  0.00     0.046 A 
ATOM     16  H   UNL     1       4.642  45.836  54.554  1.00  0.00     0.167 HD
BRANCH  15  17
ATOM     17  C   UNL     1       6.939  46.021  52.865  1.00  0.00    -0.002 A 
ATOM     18  C   UNL     1       7.414  46.441  54.122  1.00  0.00     0.010 A 
ATOM     19  C   UNL     1       7.681  46.351  51.715  1.00  0.00     0.010 A 
ATOM     20  C   UNL     1       8.604  47.169  54.223  1.00  0.00     0.001 A 
ATOM     21  C   UNL     1       8.868  47.081  51.822  1.00  0.00     0.001 A 
ATOM     22  C   UNL     1       9.329  47.489  53.075  1.00  0.00     0.000 A 
ENDBRANCH  15  17
ENDBRANCH   2   7
BRANCH   5  23
ATOM     23  N   UNL     1      -1.481  45.516  57.113  1.00  0.00    -0.308 NA
ATOM     24  H   UNL     1      -1.701  44.672  57.696  1.00  0.00     0.123 HD
BRANCH  23  25
ATOM     25  C   UNL     1      -2.269  46.676  57.566  1.00  0.00     0.058 C 
ATOM     26  C   UNL     1      -3.217  46.306  58.731  1.00  0.00     0.047 C 
ATOM     27  C   UNL     1      -1.322  47.828  57.963  1.00  0.00     0.047 C 
ATOM     28  C   UNL     1      -3.533  47.552  59.570  1.00  0.00     0.161 C 
ATOM     29  C   UNL     1      -1.170  47.919  59.490  1.00  0.00     0.161 C 
ATOM     30  O   UNL     1      -2.395  48.162  60.172  1.00  0.00    -0.381 OA
ENDBRANCH  23  25
ENDBRANCH   5  23
TORSDOF 4
ENDMDL
MODEL 3
REMARK VINA RESULT:    -8.520      2.930      4.727
REMARK INTER + INTRA:         -11.029
REMARK INTER:                 -10.506
REMARK INTRA:                  -0.523
REMARK UNBOUND:                -0.516
REMARK SMILES O=C(c1ccc2cc(-c3ccccc3)[nH]c2c1)N1CC(NC2CCOCC2)C1
REMARK SMILES IDX 1 1 2 2 18 3 19 4 20 5 28 6 3 7 4 8 17 9 5 10 16 11 6 12
REMARK SMILES IDX 15 13 7 14 8 15 9 17 10 18 14 19 11 20 13 21 12 22 21 23
REMARK SMILES IDX 22 25 23 26 27 27 24 28 26 29 25 30
REMARK H PARENT 15 16 21 24
ROOT
ATOM      1  O   UNL     1       0.011  44.222  55.213  1.00  0.00    -0.269 OA
ATOM      2  C   UNL     1       0.254  44.554  54.022  1.00  0.00     0.254 C 
ATOM      3  N   UNL     1      -0.828  44.962  53.181  1.00  0.00    -0.335 N 
ATOM      4  C   UNL     1      -2.283  45.146  53.340  1.00  0.00     0.140 C 
ATOM      5  C   UNL     1      -2.576  45.361  51.884  1.00  0.00     0.093 C 
ATOM      6  C   UNL     1      -1.096  45.182  51.745  1.00  0.00     0.140 C 
ENDROOT
BRANCH   2   7
ATOM      7  C   UNL     1       1.638  44.470  53.510  1.00  0.00     0.042 A 
ATOM      8  C   UNL     1       1.996  43.427  52.617  1.00  0.00     0.014 A 
ATOM      9  C   UNL     1       2.618  45.402  53.922  1.00  0.00     0.040 A 
ATOM     10  C   UNL     1       3.306  43.329  52.113  1.00  0.00     0.011 A 
ATOM     11  C   UNL     1       3.907  45.273  53.406  1.00  0.00     0.047 A 
ATOM     12  C   UNL     1       4.235  44.277  52.529  1.00  0.00     0.000 A 
ATOM     13  N   UNL     1       4.970  46.051  53.669  1.00  0.00    -0.355 N 
ATOM     14  C   UNL     1       5.567  44.425  52.212  1.00  0.00     0.037 A 
ATOM     15  C   UNL     1       5.994  45.539  52.940  1.00  0.00     0.046 A 
ATOM     16  H   UNL     1       4.983  46.889  54.291  1.00  0.00     0.167 HD
BRANCH  15  17
ATOM     17  C   UNL     1       7.368  46.100  52.928  1.00  0.00    -0.002 A 
ATOM     18  C   UNL     1       8.142  46.077  51.753  1.00  0.00     0.010 A 
ATOM     19  C   UNL     1       7.920  46.664  54.093  1.00  0.00     0.010 A 
ATOM     20  C   UNL     1       9.435  46.610  51.745  1.00  0.00     0.001 A 
ATOM     21  C   UNL     1       9.214  47.193  54.081  1.00  0.00     0.001 A 
ATOM     22  C   UNL     1       9.971  47.167  52.908  1.00  0.00     0.000 A 
ENDBRANCH  15  17
ENDBRANCH   2   7
BRANCH   5  23
ATOM     23  N   UNL     1      -3.005  46.729  51.532  1.00  0.00    -0.308 NA
ATOM     24  H   UNL     1      -3.458  47.218  52.341  1.00  0.00     0.123 HD
BRANCH  23  25
ATOM     25  C   UNL     1      -3.889  46.750  50.354  1.00  0.00     0.058 C 
ATOM     26  C   UNL     1      -3.469  47.842  49.342  1.00  0.00     0.047 C 
ATOM     27  C   UNL     1      -3.910  45.356  49.691  1.00  0.00     0.047 C 
ATOM     28  C   UNL     1      -3.944  47.465  47.931  1.00  0.00     0.161 C 
ATOM     29  C   UNL     1      -3.012  45.322  48.444  1.00  0.00     0.161 C 
ATOM     30  O   UNL     1      -3.403  46.245  47.434  1.00  0.00    -0.381 OA
ENDBRANCH  23  25
ENDBRANCH   5  23
TORSDOF 4
ENDMDL
MODEL 4
REMARK VINA RESULT:    -8.513      2.853      9.373
REMARK INTER + INTRA:         -11.020
REMARK INTER:                 -10.746
REMARK INTRA:                  -0.273
REMARK UNBOUND:                -0.516
REMARK SMILES O=C(c1ccc2cc(-c3ccccc3)[nH]c2c1)N1CC(NC2CCOCC2)C1
REMARK SMILES IDX 1 1 2 2 18 3 19 4 20 5 28 6 3 7 4 8 17 9 5 10 16 11 6 12
REMARK SMILES IDX 15 13 7 14 8 15 9 17 10 18 14 19 11 20 13 21 12 22 21 23
REMARK SMILES IDX 22 25 23 26 27 27 24 28 26 29 25 30
REMARK H PARENT 15 16 21 24
ROOT
ATOM      1  O   UNL     1       3.504  42.308  51.621  1.00  0.00    -0.269 OA
ATOM      2  C   UNL     1       3.355  43.334  52.337  1.00  0.00     0.254 C 
ATOM      3  N   UNL     1       4.424  44.278  52.426  1.00  0.00    -0.335 N 
ATOM      4  C   UNL     1       5.770  44.413  51.839  1.00  0.00     0.140 C 
ATOM      5  C   UNL     1       6.201  45.570  52.692  1.00  0.00     0.093 C 
ATOM      6  C   UNL     1       4.827  45.423  53.268  1.00  0.00     0.140 C 
ENDROOT
BRANCH   2   7
ATOM      7  C   UNL     1       2.102  43.514  53.101  1.00  0.00     0.042 A 
ATOM      8  C   UNL     1       0.998  42.656  52.855  1.00  0.00     0.014 A 
ATOM      9  C   UNL     1       1.981  44.549  54.056  1.00  0.00     0.040 A 
ATOM     10  C   UNL     1      -0.203  42.806  53.573  1.00  0.00     0.011 A 
ATOM     11  C   UNL     1       0.776  44.671  54.746  1.00  0.00     0.047 A 
ATOM     12  C   UNL     1      -0.273  43.825  54.516  1.00  0.00     0.000 A 
ATOM     13  N   UNL     1       0.465  45.579  55.685  1.00  0.00    -0.355 N 
ATOM     14  C   UNL     1      -1.303  44.205  55.348  1.00  0.00     0.037 A 
ATOM     15  C   UNL     1      -0.809  45.301  56.062  1.00  0.00     0.046 A 
ATOM     16  H   UNL     1       1.094  46.325  56.056  1.00  0.00     0.167 HD
BRANCH  15  17
ATOM     17  C   UNL     1      -1.556  46.065  57.092  1.00  0.00    -0.002 A 
ATOM     18  C   UNL     1      -2.852  45.671  57.477  1.00  0.00     0.010 A 
ATOM     19  C   UNL     1      -0.982  47.196  57.702  1.00  0.00     0.010 A 
ATOM     20  C   UNL     1      -3.552  46.391  58.451  1.00  0.00     0.001 A 
ATOM     21  C   UNL     1      -1.686  47.913  58.673  1.00  0.00     0.001 A 
ATOM     22  C   UNL     1      -2.970  47.511  59.048  1.00  0.00     0.000 A 
ENDBRANCH  15  17
ENDBRANCH   2   7
BRANCH   5  23
ATOM     23  N   UNL     1       6.366  46.847  51.970  1.00  0.00    -0.308 NA
ATOM     24  H   UNL     1       6.488  46.702  50.939  1.00  0.00     0.123 HD
BRANCH  23  25
ATOM     25  C   UNL     1       7.472  47.655  52.513  1.00  0.00     0.058 C 
ATOM     26  C   UNL     1       7.907  47.164  53.914  1.00  0.00     0.047 C 
ATOM     27  C   UNL     1       8.660  47.646  51.527  1.00  0.00     0.047 C 
ATOM     28  C   UNL     1       9.368  47.553  54.180  1.00  0.00     0.161 C 
ATOM     29  C   UNL     1       9.755  46.673  51.989  1.00  0.00     0.161 C 
ATOM     30  O   UNL     1      10.303  46.992  53.263  1.00  0.00    -0.381 OA
ENDBRANCH  23  25
ENDBRANCH   5  23
TORSDOF 4
ENDMDL
MODEL 5
REMARK VINA RESULT:    -7.568      3.208      5.738
REMARK INTER + INTRA:          -9.854
REMARK INTER:                  -9.200
REMARK INTRA:                  -0.653
REMARK UNBOUND:                -0.516
REMARK SMILES O=C(c1ccc2cc(-c3ccccc3)[nH]c2c1)N1CC(NC2CCOCC2)C1
REMARK SMILES IDX 1 1 2 2 18 3 19 4 20 5 28 6 3 7 4 8 17 9 5 10 16 11 6 12
REMARK SMILES IDX 15 13 7 14 8 15 9 17 10 18 14 19 11 20 13 21 12 22 21 23
REMARK SMILES IDX 22 25 23 26 27 27 24 28 26 29 25 30
REMARK H PARENT 15 16 21 24
ROOT
ATOM      1  O   UNL     1      -0.860  44.951  53.795  1.00  0.00    -0.269 OA
ATOM      2  C   UNL     1      -0.272  44.616  52.732  1.00  0.00     0.254 C 
ATOM      3  N   UNL     1      -1.051  44.354  51.563  1.00  0.00    -0.335 N 
ATOM      4  C   UNL     1      -2.483  44.395  51.211  1.00  0.00     0.140 C 
ATOM      5  C   UNL     1      -2.336  43.747  49.866  1.00  0.00     0.093 C 
ATOM      6  C   UNL     1      -0.886  43.724  50.236  1.00  0.00     0.140 C 
ENDROOT
BRANCH   2   7
ATOM      7  C   UNL     1       1.197  44.458  52.731  1.00  0.00     0.042 A 
ATOM      8  C   UNL     1       1.765  43.158  52.666  1.00  0.00     0.014 A 
ATOM      9  C   UNL     1       2.046  45.585  52.820  1.00  0.00     0.040 A 
ATOM     10  C   UNL     1       3.160  42.982  52.660  1.00  0.00     0.011 A 
ATOM     11  C   UNL     1       3.423  45.373  52.814  1.00  0.00     0.047 A 
ATOM     12  C   UNL     1       3.959  44.119  52.731  1.00  0.00     0.000 A 
ATOM     13  N   UNL     1       4.389  46.304  52.889  1.00  0.00    -0.355 N 
ATOM     14  C   UNL     1       5.330  44.250  52.747  1.00  0.00     0.037 A 
ATOM     15  C   UNL     1       5.563  45.625  52.847  1.00  0.00     0.046 A 
ATOM     16  H   UNL     1       4.249  47.337  52.942  1.00  0.00     0.167 HD
BRANCH  15  17
ATOM     17  C   UNL     1       6.899  46.269  52.900  1.00  0.00    -0.002 A 
ATOM     18  C   UNL     1       7.622  46.519  51.718  1.00  0.00     0.010 A 
ATOM     19  C   UNL     1       7.466  46.643  54.133  1.00  0.00     0.010 A 
ATOM     20  C   UNL     1       8.879  47.130  51.771  1.00  0.00     0.001 A 
ATOM     21  C   UNL     1       8.723  47.251  54.181  1.00  0.00     0.001 A 
ATOM     22  C   UNL     1       9.429  47.495  53.001  1.00  0.00     0.000 A 
ENDBRANCH  15  17
ENDBRANCH   2   7
BRANCH   5  23
ATOM     23  N   UNL     1      -2.601  44.634  48.717  1.00  0.00    -0.308 NA
ATOM     24  H   UNL     1      -2.931  45.582  49.020  1.00  0.00     0.123 HD
BRANCH  23  25
ATOM     25  C   UNL     1      -3.549  44.039  47.759  1.00  0.00     0.058 C 
ATOM     26  C   UNL     1      -3.511  44.759  46.391  1.00  0.00     0.047 C 
ATOM     27  C   UNL     1      -3.255  42.531  47.601  1.00  0.00     0.047 C 
ATOM     28  C   UNL     1      -3.980  43.809  45.280  1.00  0.00     0.161 C 
ATOM     29  C   UNL     1      -2.481  42.250  46.304  1.00  0.00     0.161 C 
ATOM     30  O   UNL     1      -3.178  42.641  45.127  1.00  0.00    -0.381 OA
ENDBRANCH  23  25
ENDBRANCH   5  23
TORSDOF 4
ENDMDL
