ligand_41_conformer_3_docked
     RDKit          3D

 43 45  0  0  0  0  0  0  0  0999 V2000
   -2.2620   42.2870   51.1860 C   0  0  0  0  0  0  0  0  0  0  0  0
   -1.8540   43.2520   52.2010 N   0  0  0  0  0  0  0  0  0  0  0  0
   -2.6270   44.2460   52.6100 N   0  0  0  0  0  0  0  0  0  0  0  0
   -1.9460   44.9480   53.5360 C   0  0  0  0  0  0  0  0  0  0  0  0
   -0.6980   44.3770   53.7200 C   0  0  0  0  0  0  0  0  0  0  0  0
    0.3830   44.8810   54.5920 C   0  0  0  0  0  0  0  0  0  0  0  0
    0.2120   44.8930   55.8400 O   0  0  0  0  0  0  0  0  0  0  0  0
    1.6310   45.3480   54.0430 N   0  0  0  0  0  0  0  0  0  0  0  0
    2.8480   45.2780   54.8650 C   0  0  0  0  0  0  0  0  0  0  0  0
    4.0850   45.1300   53.9720 C   0  0  0  0  0  0  0  0  0  0  0  0
    4.1710   46.2010   52.8500 C   0  0  0  0  0  0  0  0  0  0  0  0
    5.2550   47.1020   53.0970 O   0  0  0  0  0  0  0  0  0  0  0  0
    6.6020   46.8660   52.7750 C   0  0  0  0  0  0  0  0  0  0  0  0
    7.6630   47.2000   53.6390 C   0  0  0  0  0  0  0  0  0  0  0  0
    8.9850   46.9380   53.2650 C   0  0  0  0  0  0  0  0  0  0  0  0
    9.2610   46.3420   52.0320 C   0  0  0  0  0  0  0  0  0  0  0  0
   10.9200   46.0110   51.5680 Cl  0  0  0  0  0  0  0  0  0  0  0  0
    8.2120   46.0090   51.1690 C   0  0  0  0  0  0  0  0  0  0  0  0
    6.8900   46.2690   51.5400 C   0  0  0  0  0  0  0  0  0  0  0  0
    2.8780   47.0230   52.7080 C   0  0  0  0  0  0  0  0  0  0  0  0
    1.6350   46.1320   52.7980 C   0  0  0  0  0  0  0  0  0  0  0  0
   -0.6710   43.2940   52.8530 C   0  0  0  0  0  0  0  0  0  0  0  0
    0.4770   42.3490   52.6290 C   0  0  0  0  0  0  0  0  0  0  0  0
    1.0050   41.9470   53.8420 F   0  0  0  0  0  0  0  0  0  0  0  0
    1.4570   42.9790   51.8840 F   0  0  0  0  0  0  0  0  0  0  0  0
   -2.6456   41.3798   51.6757 H   0  0  0  0  0  0  0  0  0  0  0  0
   -3.0513   42.7265   50.5584 H   0  0  0  0  0  0  0  0  0  0  0  0
   -1.3968   42.0270   50.5584 H   0  0  0  0  0  0  0  0  0  0  0  0
   -2.3226   45.8366   54.0639 H   0  0  0  0  0  0  0  0  0  0  0  0
    2.9378   46.1990   55.4597 H   0  0  0  0  0  0  0  0  0  0  0  0
    2.7806   44.4049   55.5307 H   0  0  0  0  0  0  0  0  0  0  0  0
    4.9821   45.2140   54.6031 H   0  0  0  0  0  0  0  0  0  0  0  0
    4.0124   44.1496   53.4786 H   0  0  0  0  0  0  0  0  0  0  0  0
    4.3323   45.6473   51.9133 H   0  0  0  0  0  0  0  0  0  0  0  0
    7.4512   47.6686   54.6114 H   0  0  0  0  0  0  0  0  0  0  0  0
    9.8096   47.2019   53.9435 H   0  0  0  0  0  0  0  0  0  0  0  0
    8.4279   45.5418   50.1968 H   0  0  0  0  0  0  0  0  0  0  0  0
    6.0692   46.0031   50.8576 H   0  0  0  0  0  0  0  0  0  0  0  0
    2.8402   47.7720   53.5127 H   0  0  0  0  0  0  0  0  0  0  0  0
    2.8841   47.5092   51.7213 H   0  0  0  0  0  0  0  0  0  0  0  0
    0.7364   46.7659   52.7703 H   0  0  0  0  0  0  0  0  0  0  0  0
    1.6442   45.4346   51.9474 H   0  0  0  0  0  0  0  0  0  0  0  0
    0.1124   41.4648   52.0856 H   0  0  0  0  0  0  0  0  0  0  0  0
  1  2  1  0
  2  3  1  0
  3  4  2  0
  4  5  1  0
  5  6  1  0
  6  7  2  0
  6  8  1  0
  8  9  1  0
  9 10  1  0
 10 11  1  0
 11 12  1  0
 12 13  1  0
 13 14  2  0
 14 15  1  0
 15 16  2  0
 16 17  1  0
 16 18  1  0
 18 19  2  0
 11 20  1  0
 20 21  1  0
  5 22  2  0
 22 23  1  0
 23 24  1  0
 23 25  1  0
 22  2  1  0
 21  8  1  0
 19 13  1  0
  1 26  1  0
  1 27  1  0
  1 28  1  0
  4 29  1  0
  9 30  1  0
  9 31  1  0
 10 32  1  0
 10 33  1  0
 11 34  1  0
 14 35  1  0
 15 36  1  0
 18 37  1  0
 19 38  1  0
 20 39  1  0
 20 40  1  0
 21 41  1  0
 21 42  1  0
 23 43  1  0
M  END
>  <meeko>  (1) 
{"is_sidechain": [false], "free_energy": -7.804, "intermolecular_energy": -9.628, "internal_energy": -0.88}

$$$$
ligand_41_conformer_3_docked
     RDKit          3D

 43 45  0  0  0  0  0  0  0  0999 V2000
   -2.3290   43.6390   52.9130 C   0  0  0  0  0  0  0  0  0  0  0  0
   -0.9550   43.1840   53.0950 N   0  0  0  0  0  0  0  0  0  0  0  0
   -0.6250   42.1700   53.8800 N   0  0  0  0  0  0  0  0  0  0  0  0
    0.7130   42.0240   53.8290 C   0  0  0  0  0  0  0  0  0  0  0  0
    1.2480   42.9790   52.9810 C   0  0  0  0  0  0  0  0  0  0  0  0
    2.6810   43.2110   52.7050 C   0  0  0  0  0  0  0  0  0  0  0  0
    3.3700   42.2820   52.2060 O   0  0  0  0  0  0  0  0  0  0  0  0
    3.3020   44.4820   52.9850 N   0  0  0  0  0  0  0  0  0  0  0  0
    4.4790   44.8930   52.2060 C   0  0  0  0  0  0  0  0  0  0  0  0
    4.5530   46.4220   52.1230 C   0  0  0  0  0  0  0  0  0  0  0  0
    4.4660   47.1220   53.5070 C   0  0  0  0  0  0  0  0  0  0  0  0
    5.7180   47.7250   53.8470 O   0  0  0  0  0  0  0  0  0  0  0  0
    6.9660   47.3740   53.3050 C   0  0  0  0  0  0  0  0  0  0  0  0
    7.5050   47.9960   52.1610 C   0  0  0  0  0  0  0  0  0  0  0  0
    8.7540   47.6060   51.6690 C   0  0  0  0  0  0  0  0  0  0  0  0
    9.4770   46.5950   52.3110 C   0  0  0  0  0  0  0  0  0  0  0  0
   11.0460   46.1110   51.6920 Cl  0  0  0  0  0  0  0  0  0  0  0  0
    8.9470   45.9730   53.4450 C   0  0  0  0  0  0  0  0  0  0  0  0
    7.6990   46.3610   53.9390 C   0  0  0  0  0  0  0  0  0  0  0  0
    4.0670   46.1600   54.6400 C   0  0  0  0  0  0  0  0  0  0  0  0
    2.9380   45.2200   54.2050 C   0  0  0  0  0  0  0  0  0  0  0  0
    0.1560   43.7040   52.5270 C   0  0  0  0  0  0  0  0  0  0  0  0
    0.1830   44.8910   51.6040 C   0  0  0  0  0  0  0  0  0  0  0  0
    1.1560   44.7180   50.6370 F   0  0  0  0  0  0  0  0  0  0  0  0
    0.4500   46.0370   52.3300 F   0  0  0  0  0  0  0  0  0  0  0  0
   -2.7972   43.7940   53.8962 H   0  0  0  0  0  0  0  0  0  0  0  0
   -2.3306   44.5856   52.3528 H   0  0  0  0  0  0  0  0  0  0  0  0
   -2.8953   42.8804   52.3528 H   0  0  0  0  0  0  0  0  0  0  0  0
    1.2908   41.2643   54.3759 H   0  0  0  0  0  0  0  0  0  0  0  0
    5.3883   44.5114   52.6933 H   0  0  0  0  0  0  0  0  0  0  0  0
    4.3968   44.4824   51.1888 H   0  0  0  0  0  0  0  0  0  0  0  0
    5.5074   46.6994   51.6518 H   0  0  0  0  0  0  0  0  0  0  0  0
    3.6853   46.7568   51.5357 H   0  0  0  0  0  0  0  0  0  0  0  0
    3.6810   47.8864   53.4101 H   0  0  0  0  0  0  0  0  0  0  0  0
    6.9405   48.7918   51.6530 H   0  0  0  0  0  0  0  0  0  0  0  0
    9.1691   48.0950   50.7754 H   0  0  0  0  0  0  0  0  0  0  0  0
    9.5136   45.1765   53.9495 H   0  0  0  0  0  0  0  0  0  0  0  0
    7.2884   45.8678   54.8324 H   0  0  0  0  0  0  0  0  0  0  0  0
    4.9434   45.5590   54.9242 H   0  0  0  0  0  0  0  0  0  0  0  0
    3.7103   46.7579   55.4916 H   0  0  0  0  0  0  0  0  0  0  0  0
    2.7379   44.5012   55.0132 H   0  0  0  0  0  0  0  0  0  0  0  0
    2.0432   45.8239   53.9935 H   0  0  0  0  0  0  0  0  0  0  0  0
   -0.7972   44.9864   51.1139 H   0  0  0  0  0  0  0  0  0  0  0  0
  1  2  1  0
  2  3  1  0
  3  4  2  0
  4  5  1  0
  5  6  1  0
  6  7  2  0
  6  8  1  0
  8  9  1  0
  9 10  1  0
 10 11  1  0
 11 12  1  0
 12 13  1  0
 13 14  2  0
 14 15  1  0
 15 16  2  0
 16 17  1  0
 16 18  1  0
 18 19  2  0
 11 20  1  0
 20 21  1  0
  5 22  2  0
 22 23  1  0
 23 24  1  0
 23 25  1  0
 22  2  1  0
 21  8  1  0
 19 13  1  0
  1 26  1  0
  1 27  1  0
  1 28  1  0
  4 29  1  0
  9 30  1  0
  9 31  1  0
 10 32  1  0
 10 33  1  0
 11 34  1  0
 14 35  1  0
 15 36  1  0
 18 37  1  0
 19 38  1  0
 20 39  1  0
 20 40  1  0
 21 41  1  0
 21 42  1  0
 23 43  1  0
M  END
>  <meeko>  (2) 
{"is_sidechain": [false], "free_energy": -7.778, "intermolecular_energy": -9.742, "internal_energy": -0.734}

$$$$
ligand_41_conformer_3_docked
     RDKit          3D

 43 45  0  0  0  0  0  0  0  0999 V2000
    8.7910   43.9170   49.2170 C   0  0  0  0  0  0  0  0  0  0  0  0
    8.6650   44.9280   50.2620 N   0  0  0  0  0  0  0  0  0  0  0  0
    9.7030   45.4450   50.8990 N   0  0  0  0  0  0  0  0  0  0  0  0
    9.2370   46.3320   51.8000 C   0  0  0  0  0  0  0  0  0  0  0  0
    7.8550   46.3780   51.7280 C   0  0  0  0  0  0  0  0  0  0  0  0
    6.9520   47.1650   52.5920 C   0  0  0  0  0  0  0  0  0  0  0  0
    7.1550   48.4020   52.7290 O   0  0  0  0  0  0  0  0  0  0  0  0
    5.8390   46.5500   53.2710 N   0  0  0  0  0  0  0  0  0  0  0  0
    4.6640   47.3660   53.6100 C   0  0  0  0  0  0  0  0  0  0  0  0
    3.4050   46.4940   53.6490 C   0  0  0  0  0  0  0  0  0  0  0  0
    3.5500   45.2360   54.5480 C   0  0  0  0  0  0  0  0  0  0  0  0
    2.7240   45.3500   55.7110 O   0  0  0  0  0  0  0  0  0  0  0  0
    1.3620   45.0130   55.7800 C   0  0  0  0  0  0  0  0  0  0  0  0
    0.5620   45.2910   56.9060 C   0  0  0  0  0  0  0  0  0  0  0  0
   -0.7900   44.9340   56.9160 C   0  0  0  0  0  0  0  0  0  0  0  0
   -1.3560   44.2990   55.8080 C   0  0  0  0  0  0  0  0  0  0  0  0
   -3.0540   43.8560   55.8220 Cl  0  0  0  0  0  0  0  0  0  0  0  0
   -0.5680   44.0190   54.6870 C   0  0  0  0  0  0  0  0  0  0  0  0
    0.7830   44.3750   54.6740 C   0  0  0  0  0  0  0  0  0  0  0  0
    4.9990   44.9910   55.0050 C   0  0  0  0  0  0  0  0  0  0  0  0
    5.9910   45.2090   53.8580 C   0  0  0  0  0  0  0  0  0  0  0  0
    7.5210   45.4690   50.7340 C   0  0  0  0  0  0  0  0  0  0  0  0
    6.1350   45.1020   50.2790 C   0  0  0  0  0  0  0  0  0  0  0  0
    5.2830   46.1800   50.4370 F   0  0  0  0  0  0  0  0  0  0  0  0
    5.6710   44.0330   51.0230 F   0  0  0  0  0  0  0  0  0  0  0  0
    8.9145   42.9261   49.6784 H   0  0  0  0  0  0  0  0  0  0  0  0
    7.8855   43.9204   48.5925 H   0  0  0  0  0  0  0  0  0  0  0  0
    9.6680   44.1425   48.5925 H   0  0  0  0  0  0  0  0  0  0  0  0
    9.8579   46.9270   52.4860 H   0  0  0  0  0  0  0  0  0  0  0  0
    4.8158   47.8287   54.5964 H   0  0  0  0  0  0  0  0  0  0  0  0
    4.5362   48.1452   52.8442 H   0  0  0  0  0  0  0  0  0  0  0  0
    2.5723   47.1018   54.0325 H   0  0  0  0  0  0  0  0  0  0  0  0
    3.2252   46.1396   52.6233 H   0  0  0  0  0  0  0  0  0  0  0  0
    3.2339   44.3836   53.9287 H   0  0  0  0  0  0  0  0  0  0  0  0
    1.0028   45.7910   57.7810 H   0  0  0  0  0  0  0  0  0  0  0  0
   -1.4091   45.1537   57.7983 H   0  0  0  0  0  0  0  0  0  0  0  0
   -1.0124   43.5179   53.8144 H   0  0  0  0  0  0  0  0  0  0  0  0
    1.3973   44.1529   53.7889 H   0  0  0  0  0  0  0  0  0  0  0  0
    5.2389   45.6865   55.8228 H   0  0  0  0  0  0  0  0  0  0  0  0
    5.0839   43.9476   55.3427 H   0  0  0  0  0  0  0  0  0  0  0  0
    7.0153   45.1002   54.2439 H   0  0  0  0  0  0  0  0  0  0  0  0
    5.7897   44.4616   53.0764 H   0  0  0  0  0  0  0  0  0  0  0  0
    6.1686   44.8233   49.2154 H   0  0  0  0  0  0  0  0  0  0  0  0
  1  2  1  0
  2  3  1  0
  3  4  2  0
  4  5  1  0
  5  6  1  0
  6  7  2  0
  6  8  1  0
  8  9  1  0
  9 10  1  0
 10 11  1  0
 11 12  1  0
 12 13  1  0
 13 14  2  0
 14 15  1  0
 15 16  2  0
 16 17  1  0
 16 18  1  0
 18 19  2  0
 11 20  1  0
 20 21  1  0
  5 22  2  0
 22 23  1  0
 23 24  1  0
 23 25  1  0
 22  2  1  0
 21  8  1  0
 19 13  1  0
  1 26  1  0
  1 27  1  0
  1 28  1  0
  4 29  1  0
  9 30  1  0
  9 31  1  0
 10 32  1  0
 10 33  1  0
 11 34  1  0
 14 35  1  0
 15 36  1  0
 18 37  1  0
 19 38  1  0
 20 39  1  0
 20 40  1  0
 21 41  1  0
 21 42  1  0
 23 43  1  0
M  END
>  <meeko>  (3) 
{"is_sidechain": [false], "free_energy": -7.739, "intermolecular_energy": -10.094, "internal_energy": -0.334}

$$$$
ligand_41_conformer_3_docked
     RDKit          3D

 43 45  0  0  0  0  0  0  0  0999 V2000
   -0.9700   44.8540   53.1880 C   0  0  0  0  0  0  0  0  0  0  0  0
    0.1470   44.2890   52.4390 N   0  0  0  0  0  0  0  0  0  0  0  0
    0.0210   43.7830   51.2220 N   0  0  0  0  0  0  0  0  0  0  0  0
    1.2320   43.3410   50.8300 C   0  0  0  0  0  0  0  0  0  0  0  0
    2.1550   43.5780   51.8340 C   0  0  0  0  0  0  0  0  0  0  0  0
    3.5780   43.1810   51.8360 C   0  0  0  0  0  0  0  0  0  0  0  0
    3.8880   42.0020   52.1580 O   0  0  0  0  0  0  0  0  0  0  0  0
    4.6160   44.1100   51.4670 N   0  0  0  0  0  0  0  0  0  0  0  0
    5.8770   43.5960   50.9120 C   0  0  0  0  0  0  0  0  0  0  0  0
    6.5090   44.6330   49.9770 C   0  0  0  0  0  0  0  0  0  0  0  0
    6.6580   46.0380   50.6220 C   0  0  0  0  0  0  0  0  0  0  0  0
    8.0370   46.3480   50.8410 O   0  0  0  0  0  0  0  0  0  0  0  0
    8.5980   46.7550   52.0640 C   0  0  0  0  0  0  0  0  0  0  0  0
    8.1600   47.8990   52.7610 C   0  0  0  0  0  0  0  0  0  0  0  0
    8.7550   48.2540   53.9760 C   0  0  0  0  0  0  0  0  0  0  0  0
    9.7870   47.4750   54.5060 C   0  0  0  0  0  0  0  0  0  0  0  0
   10.5280   47.9210   56.0330 Cl  0  0  0  0  0  0  0  0  0  0  0  0
   10.2270   46.3400   53.8190 C   0  0  0  0  0  0  0  0  0  0  0  0
    9.6340   45.9820   52.6050 C   0  0  0  0  0  0  0  0  0  0  0  0
    5.9130   46.1640   51.9620 C   0  0  0  0  0  0  0  0  0  0  0  0
    4.5260   45.5150   51.8940 C   0  0  0  0  0  0  0  0  0  0  0  0
    1.4300   44.1860   52.8480 C   0  0  0  0  0  0  0  0  0  0  0  0
    1.9500   44.6200   54.1920 C   0  0  0  0  0  0  0  0  0  0  0  0
    1.1640   44.0880   55.1980 F   0  0  0  0  0  0  0  0  0  0  0  0
    1.9320   46.0000   54.2720 F   0  0  0  0  0  0  0  0  0  0  0  0
   -0.7756   44.7557   54.2662 H   0  0  0  0  0  0  0  0  0  0  0  0
   -1.0830   45.9176   52.9313 H   0  0  0  0  0  0  0  0  0  0  0  0
   -1.8937   44.3147   52.9313 H   0  0  0  0  0  0  0  0  0  0  0  0
    1.4528   42.8658   49.8628 H   0  0  0  0  0  0  0  0  0  0  0  0
    6.5733   43.3776   51.7351 H   0  0  0  0  0  0  0  0  0  0  0  0
    5.6689   42.6792   50.3408 H   0  0  0  0  0  0  0  0  0  0  0  0
    7.5077   44.2760   49.6851 H   0  0  0  0  0  0  0  0  0  0  0  0
    5.8368   44.7427   49.1132 H   0  0  0  0  0  0  0  0  0  0  0  0
    6.2092   46.7464   49.9102 H   0  0  0  0  0  0  0  0  0  0  0  0
    7.3474   48.5148   52.3480 H   0  0  0  0  0  0  0  0  0  0  0  0
    8.4098   49.1483   54.5155 H   0  0  0  0  0  0  0  0  0  0  0  0
   11.0410   45.7277   54.2343 H   0  0  0  0  0  0  0  0  0  0  0  0
    9.9833   45.0865   52.0701 H   0  0  0  0  0  0  0  0  0  0  0  0
    6.5023   45.6677   52.7471 H   0  0  0  0  0  0  0  0  0  0  0  0
    5.7843   47.2330   52.1874 H   0  0  0  0  0  0  0  0  0  0  0  0
    4.0605   45.5582   52.8897 H   0  0  0  0  0  0  0  0  0  0  0  0
    3.9202   46.0644   51.1583 H   0  0  0  0  0  0  0  0  0  0  0  0
    2.9818   44.2580   54.3120 H   0  0  0  0  0  0  0  0  0  0  0  0
  1  2  1  0
  2  3  1  0
  3  4  2  0
  4  5  1  0
  5  6  1  0
  6  7  2  0
  6  8  1  0
  8  9  1  0
  9 10  1  0
 10 11  1  0
 11 12  1  0
 12 13  1  0
 13 14  2  0
 14 15  1  0
 15 16  2  0
 16 17  1  0
 16 18  1  0
 18 19  2  0
 11 20  1  0
 20 21  1  0
  5 22  2  0
 22 23  1  0
 23 24  1  0
 23 25  1  0
 22  2  1  0
 21  8  1  0
 19 13  1  0
  1 26  1  0
  1 27  1  0
  1 28  1  0
  4 29  1  0
  9 30  1  0
  9 31  1  0
 10 32  1  0
 10 33  1  0
 11 34  1  0
 14 35  1  0
 15 36  1  0
 18 37  1  0
 19 38  1  0
 20 39  1  0
 20 40  1  0
 21 41  1  0
 21 42  1  0
 23 43  1  0
M  END
>  <meeko>  (4) 
{"is_sidechain": [false], "free_energy": -7.719, "intermolecular_energy": -10.286, "internal_energy": -0.118}

$$$$
ligand_41_conformer_3_docked
     RDKit          3D

 43 45  0  0  0  0  0  0  0  0999 V2000
   -2.4980   42.5600   51.6490 C   0  0  0  0  0  0  0  0  0  0  0  0
   -1.2240   42.6590   52.3530 N   0  0  0  0  0  0  0  0  0  0  0  0
   -0.5910   41.6100   52.8560 N   0  0  0  0  0  0  0  0  0  0  0  0
    0.5380   42.0510   53.4450 C   0  0  0  0  0  0  0  0  0  0  0  0
    0.6220   43.4260   53.3080 C   0  0  0  0  0  0  0  0  0  0  0  0
    1.6640   44.3080   53.8720 C   0  0  0  0  0  0  0  0  0  0  0  0
    1.5160   44.7670   55.0370 O   0  0  0  0  0  0  0  0  0  0  0  0
    2.8480   44.6430   53.1230 N   0  0  0  0  0  0  0  0  0  0  0  0
    4.0820   44.9880   53.8450 C   0  0  0  0  0  0  0  0  0  0  0  0
    5.3100   44.6260   53.0020 C   0  0  0  0  0  0  0  0  0  0  0  0
    5.2660   45.2080   51.5620 C   0  0  0  0  0  0  0  0  0  0  0  0
    6.2590   46.2260   51.4010 O   0  0  0  0  0  0  0  0  0  0  0  0
    7.3120   46.4870   52.2920 C   0  0  0  0  0  0  0  0  0  0  0  0
    8.6570   46.1860   51.9950 C   0  0  0  0  0  0  0  0  0  0  0  0
    9.6640   46.4720   52.9220 C   0  0  0  0  0  0  0  0  0  0  0  0
    9.3430   47.0580   54.1490 C   0  0  0  0  0  0  0  0  0  0  0  0
   10.6100   47.4180   55.3080 Cl  0  0  0  0  0  0  0  0  0  0  0  0
    8.0110   47.3570   54.4510 C   0  0  0  0  0  0  0  0  0  0  0  0
    7.0020   47.0740   53.5270 C   0  0  0  0  0  0  0  0  0  0  0  0
    3.8950   45.8050   51.2000 C   0  0  0  0  0  0  0  0  0  0  0  0
    2.7500   44.9070   51.6780 C   0  0  0  0  0  0  0  0  0  0  0  0
   -0.5200   43.7840   52.6040 C   0  0  0  0  0  0  0  0  0  0  0  0
   -0.9420   45.1750   52.2190 C   0  0  0  0  0  0  0  0  0  0  0  0
   -2.0390   45.5620   52.9660 F   0  0  0  0  0  0  0  0  0  0  0  0
   -1.2630   45.2060   50.8750 F   0  0  0  0  0  0  0  0  0  0  0  0
   -3.3171   42.4963   52.3804 H   0  0  0  0  0  0  0  0  0  0  0  0
   -2.6383   43.4500   51.0179 H   0  0  0  0  0  0  0  0  0  0  0  0
   -2.4991   41.6591   51.0179 H   0  0  0  0  0  0  0  0  0  0  0  0
    1.2779   41.4169   53.9554 H   0  0  0  0  0  0  0  0  0  0  0  0
    4.0906   46.0680   54.0537 H   0  0  0  0  0  0  0  0  0  0  0  0
    4.1154   44.4220   54.7876 H   0  0  0  0  0  0  0  0  0  0  0  0
    6.2063   45.0147   53.5075 H   0  0  0  0  0  0  0  0  0  0  0  0
    5.3266   43.5302   52.9080 H   0  0  0  0  0  0  0  0  0  0  0  0
    5.4631   44.3625   50.8865 H   0  0  0  0  0  0  0  0  0  0  0  0
    8.9151   45.7245   51.0305 H   0  0  0  0  0  0  0  0  0  0  0  0
   10.7116   46.2350   52.6846 H   0  0  0  0  0  0  0  0  0  0  0  0
    7.7570   47.8159   55.4179 H   0  0  0  0  0  0  0  0  0  0  0  0
    5.9563   47.3136   53.7703 H   0  0  0  0  0  0  0  0  0  0  0  0
    3.7978   46.7922   51.6754 H   0  0  0  0  0  0  0  0  0  0  0  0
    3.8333   45.8909   50.1051 H   0  0  0  0  0  0  0  0  0  0  0  0
    1.7919   45.4051   51.4685 H   0  0  0  0  0  0  0  0  0  0  0  0
    2.8134   43.9476   51.1436 H   0  0  0  0  0  0  0  0  0  0  0  0
   -0.1115   45.8690   52.4152 H   0  0  0  0  0  0  0  0  0  0  0  0
  1  2  1  0
  2  3  1  0
  3  4  2  0
  4  5  1  0
  5  6  1  0
  6  7  2  0
  6  8  1  0
  8  9  1  0
  9 10  1  0
 10 11  1  0
 11 12  1  0
 12 13  1  0
 13 14  2  0
 14 15  1  0
 15 16  2  0
 16 17  1  0
 16 18  1  0
 18 19  2  0
 11 20  1  0
 20 21  1  0
  5 22  2  0
 22 23  1  0
 23 24  1  0
 23 25  1  0
 22  2  1  0
 21  8  1  0
 19 13  1  0
  1 26  1  0
  1 27  1  0
  1 28  1  0
  4 29  1  0
  9 30  1  0
  9 31  1  0
 10 32  1  0
 10 33  1  0
 11 34  1  0
 14 35  1  0
 15 36  1  0
 18 37  1  0
 19 38  1  0
 20 39  1  0
 20 40  1  0
 21 41  1  0
 21 42  1  0
 23 43  1  0
M  END
>  <meeko>  (5) 
{"is_sidechain": [false], "free_energy": -7.714, "intermolecular_energy": -10.185, "internal_energy": -0.213}

$$$$
