MODEL 1
REMARK VINA RESULT:    -6.867      0.000      0.000
REMARK INTER + INTRA:         -10.038
REMARK INTER:                 -10.480
REMARK INTRA:                   0.443
REMARK UNBOUND:                 0.443
REMARK SMILES Cc1nc(N2CCCN(c3ccncc3)CC2)c(C)c(-n2cccn2)n1
REMARK SMILES IDX 17 1 5 2 4 3 2 4 3 5 26 6 20 7 18 8 1 9 19 10 21 11 22 12
REMARK SMILES IDX 25 13 23 14 24 15 6 16 7 17 16 19 9 20 8 21 10 23 11 24
REMARK SMILES IDX 15 25 12 26 14 27 13 28
REMARK H PARENT
REMARK Flexibility Score:   55.900
ROOT
ATOM      1  C   UNL     1       3.085  45.493  51.190  1.00  0.00     0.139 C 
ENDROOT
BRANCH   1   2
ATOM      2  N   UNL     1       4.157  44.556  51.552  1.00  0.00    -0.354 N 
BRANCH   2   3
ATOM      3  C   UNL     1       5.526  44.954  51.366  1.00  0.00     0.137 A 
ATOM      4  C   UNL     1       7.497  44.816  50.061  1.00  0.00     0.130 A 
ATOM      5  N   UNL     1       6.195  44.506  50.272  1.00  0.00    -0.216 NA
ATOM      6  N   UNL     1       8.176  45.539  50.985  1.00  0.00    -0.214 NA
ATOM      7  C   UNL     1       7.573  46.013  52.109  1.00  0.00     0.162 A 
ATOM      8  C   UNL     1       6.191  45.772  52.306  1.00  0.00     0.036 A 
ATOM      9  C   UNL     1       8.207  44.283  48.862  1.00  0.00     0.090 C 
ATOM     10  C   UNL     1       5.435  46.389  53.455  1.00  0.00     0.052 C 
BRANCH   7  11
ATOM     11  N   UNL     1       8.370  46.733  53.065  1.00  0.00    -0.222 N 
ATOM     12  C   UNL     1       9.472  46.259  53.680  1.00  0.00     0.117 A 
ATOM     13  N   UNL     1       8.067  47.925  53.557  1.00  0.00    -0.175 NA
ATOM     14  C   UNL     1       9.907  47.200  54.586  1.00  0.00     0.042 A 
ATOM     15  C   UNL     1       8.998  48.236  54.480  1.00  0.00     0.135 A 
ENDBRANCH   7  11
ENDBRANCH   2   3
BRANCH   2  16
ATOM     16  C   UNL     1       3.853  43.454  52.473  1.00  0.00     0.120 C 
BRANCH  16  17
ATOM     17  C   UNL     1       2.517  42.790  52.117  1.00  0.00     0.043 CG0
ATOM     18  G   UNL     1       1.271  43.696  52.243  1.00  0.00     0.000 G0
ENDBRANCH  16  17
ENDBRANCH   2  16
ENDBRANCH   1   2
BRANCH   1  19
ATOM     19  C   UNL     1       2.330  45.994  52.424  1.00  0.00     0.138 C 
BRANCH  19  20
ATOM     20  N   UNL     1       1.503  44.931  53.019  1.00  0.00    -0.370 N 
BRANCH  20  21
ATOM     21  C   UNL     1       1.262  43.709  52.234  1.00  0.00     0.118 CG0
ATOM     22  G   UNL     1       2.503  42.795  52.120  1.00  0.00     0.000 G0
ENDBRANCH  20  21
BRANCH  20  23
ATOM     23  C   UNL     1       0.954  45.065  54.350  1.00  0.00     0.040 A 
ATOM     24  C   UNL     1       1.794  45.291  55.454  1.00  0.00     0.046 A 
ATOM     25  C   UNL     1      -0.428  44.930  54.576  1.00  0.00     0.046 A 
ATOM     26  C   UNL     1       1.246  45.409  56.733  1.00  0.00     0.113 A 
ATOM     27  C   UNL     1      -0.934  45.053  55.872  1.00  0.00     0.113 A 
ATOM     28  N   UNL     1      -0.096  45.291  56.914  1.00  0.00    -0.265 NA
ENDBRANCH  20  23
ENDBRANCH  19  20
ENDBRANCH   1  19
TORSDOF 3
ENDMDL
MODEL 2
REMARK VINA RESULT:    -6.631      1.896      2.889
REMARK INTER + INTRA:          -9.677
REMARK INTER:                  -9.262
REMARK INTRA:                  -0.415
REMARK UNBOUND:                 0.443
REMARK SMILES Cc1nc(N2CCCN(c3ccncc3)CC2)c(C)c(-n2cccn2)n1
REMARK SMILES IDX 17 1 5 2 4 3 2 4 3 5 26 6 20 7 18 8 1 9 19 10 21 11 22 12
REMARK SMILES IDX 25 13 23 14 24 15 6 16 7 17 16 19 9 20 8 21 10 23 11 24
REMARK SMILES IDX 15 25 12 26 14 27 13 28
REMARK H PARENT
REMARK Flexibility Score:   55.900
ROOT
ATOM      1  C   UNL     1       1.448  42.371  53.256  1.00  0.00     0.139 C 
ENDROOT
BRANCH   1   2
ATOM      2  N   UNL     1       1.788  43.232  52.116  1.00  0.00    -0.354 N 
BRANCH   2   3
ATOM      3  C   UNL     1       3.172  43.435  51.780  1.00  0.00     0.137 A 
ATOM      4  C   UNL     1       5.113  42.626  50.694  1.00  0.00     0.130 A 
ATOM      5  N   UNL     1       3.801  42.509  51.012  1.00  0.00    -0.216 NA
ATOM      6  N   UNL     1       5.840  43.654  51.197  1.00  0.00    -0.214 NA
ATOM      7  C   UNL     1       5.278  44.613  51.981  1.00  0.00     0.162 A 
ATOM      8  C   UNL     1       3.889  44.555  52.255  1.00  0.00     0.036 A 
ATOM      9  C   UNL     1       5.779  41.574  49.871  1.00  0.00     0.090 C 
ATOM     10  C   UNL     1       3.181  45.661  52.995  1.00  0.00     0.052 C 
BRANCH   7  11
ATOM     11  N   UNL     1       6.123  45.647  52.515  1.00  0.00    -0.222 N 
ATOM     12  C   UNL     1       6.630  45.676  53.764  1.00  0.00     0.117 A 
ATOM     13  N   UNL     1       6.429  46.772  51.887  1.00  0.00    -0.175 NA
ATOM     14  C   UNL     1       7.313  46.860  53.931  1.00  0.00     0.042 A 
ATOM     15  C   UNL     1       7.165  47.524  52.729  1.00  0.00     0.135 A 
ENDBRANCH   7  11
ENDBRANCH   2   3
BRANCH   2  16
ATOM     16  C   UNL     1       0.761  43.505  51.103  1.00  0.00     0.120 C 
BRANCH  16  17
ATOM     17  C   UNL     1      -0.067  44.740  51.476  1.00  0.00     0.043 CG0
ATOM     18  G   UNL     1      -1.060  44.546  52.644  1.00  0.00     0.000 G0
ENDBRANCH  16  17
ENDBRANCH   2  16
ENDBRANCH   1   2
BRANCH   1  19
ATOM     19  C   UNL     1      -0.046  42.430  53.584  1.00  0.00     0.138 C 
BRANCH  19  20
ATOM     20  N   UNL     1      -0.500  43.815  53.787  1.00  0.00    -0.370 N 
BRANCH  20  21
ATOM     21  C   UNL     1      -1.068  44.542  52.639  1.00  0.00     0.118 CG0
ATOM     22  G   UNL     1      -0.065  44.743  51.480  1.00  0.00     0.000 G0
ENDBRANCH  20  21
BRANCH  20  23
ATOM     23  C   UNL     1      -0.415  44.450  55.083  1.00  0.00     0.040 A 
ATOM     24  C   UNL     1      -1.567  44.643  55.866  1.00  0.00     0.046 A 
ATOM     25  C   UNL     1       0.815  44.927  55.572  1.00  0.00     0.046 A 
ATOM     26  C   UNL     1      -1.465  45.266  57.111  1.00  0.00     0.113 A 
ATOM     27  C   UNL     1       0.872  45.545  56.823  1.00  0.00     0.113 A 
ATOM     28  N   UNL     1      -0.258  45.699  57.562  1.00  0.00    -0.265 NA
ENDBRANCH  20  23
ENDBRANCH  19  20
ENDBRANCH   1  19
TORSDOF 3
ENDMDL
MODEL 3
REMARK VINA RESULT:    -6.630      2.596      7.539
REMARK INTER + INTRA:          -9.675
REMARK INTER:                  -9.578
REMARK INTRA:                  -0.096
REMARK UNBOUND:                 0.443
REMARK SMILES Cc1nc(N2CCCN(c3ccncc3)CC2)c(C)c(-n2cccn2)n1
REMARK SMILES IDX 17 1 5 2 4 3 2 4 3 5 26 6 20 7 18 8 1 9 19 10 21 11 22 12
REMARK SMILES IDX 25 13 23 14 24 15 6 16 7 17 16 19 9 20 8 21 10 23 11 24
REMARK SMILES IDX 15 25 12 26 14 27 13 28
REMARK H PARENT
REMARK Flexibility Score:   55.900
ROOT
ATOM      1  C   UNL     1       4.413  44.978  54.718  1.00  0.00     0.139 C 
ENDROOT
BRANCH   1   2
ATOM      2  N   UNL     1       4.031  45.200  53.317  1.00  0.00    -0.354 N 
BRANCH   2   3
ATOM      3  C   UNL     1       3.356  44.150  52.602  1.00  0.00     0.137 A 
ATOM      4  C   UNL     1       3.516  42.280  51.158  1.00  0.00     0.130 A 
ATOM      5  N   UNL     1       4.096  43.268  51.883  1.00  0.00    -0.216 NA
ATOM      6  N   UNL     1       2.164  42.197  51.095  1.00  0.00    -0.214 NA
ATOM      7  C   UNL     1       1.360  43.053  51.782  1.00  0.00     0.162 A 
ATOM      8  C   UNL     1       1.949  44.038  52.612  1.00  0.00     0.036 A 
ATOM      9  C   UNL     1       4.359  41.346  50.357  1.00  0.00     0.090 C 
ATOM     10  C   UNL     1       1.116  44.920  53.506  1.00  0.00     0.052 C 
BRANCH   7  11
ATOM     11  N   UNL     1      -0.065  42.930  51.627  1.00  0.00    -0.222 N 
ATOM     12  C   UNL     1      -0.822  43.642  50.768  1.00  0.00     0.117 A 
ATOM     13  N   UNL     1      -0.846  42.179  52.388  1.00  0.00    -0.175 NA
ATOM     14  C   UNL     1      -2.144  43.310  50.972  1.00  0.00     0.042 A 
ATOM     15  C   UNL     1      -2.119  42.386  51.999  1.00  0.00     0.135 A 
ENDBRANCH   7  11
ENDBRANCH   2   3
BRANCH   2  16
ATOM     16  C   UNL     1       3.940  46.576  52.816  1.00  0.00     0.120 C 
BRANCH  16  17
ATOM     17  C   UNL     1       4.073  47.589  53.960  1.00  0.00     0.043 CG0
ATOM     18  G   UNL     1       5.485  47.714  54.576  1.00  0.00     0.000 G0
ENDBRANCH  16  17
ENDBRANCH   2  16
ENDBRANCH   1   2
BRANCH   1  19
ATOM     19  C   UNL     1       5.906  45.234  54.944  1.00  0.00     0.138 C 
BRANCH  19  20
ATOM     20  N   UNL     1       6.329  46.516  54.358  1.00  0.00    -0.370 N 
BRANCH  20  21
ATOM     21  C   UNL     1       5.484  47.701  54.581  1.00  0.00     0.118 CG0
ATOM     22  G   UNL     1       4.077  47.582  53.954  1.00  0.00     0.000 G0
ENDBRANCH  20  21
BRANCH  20  23
ATOM     23  C   UNL     1       7.554  46.624  53.597  1.00  0.00     0.040 A 
ATOM     24  C   UNL     1       7.595  46.244  52.244  1.00  0.00     0.046 A 
ATOM     25  C   UNL     1       8.742  47.070  54.204  1.00  0.00     0.046 A 
ATOM     26  C   UNL     1       8.790  46.347  51.529  1.00  0.00     0.113 A 
ATOM     27  C   UNL     1       9.916  47.157  53.452  1.00  0.00     0.113 A 
ATOM     28  N   UNL     1       9.915  46.799  52.141  1.00  0.00    -0.265 NA
ENDBRANCH  20  23
ENDBRANCH  19  20
ENDBRANCH   1  19
TORSDOF 3
ENDMDL
MODEL 4
REMARK VINA RESULT:    -6.628      1.735      2.582
REMARK INTER + INTRA:          -9.673
REMARK INTER:                 -10.165
REMARK INTRA:                   0.492
REMARK UNBOUND:                 0.443
REMARK SMILES Cc1nc(N2CCCN(c3ccncc3)CC2)c(C)c(-n2cccn2)n1
REMARK SMILES IDX 17 1 5 2 4 3 2 4 3 5 26 6 20 7 18 8 1 9 19 10 21 11 22 12
REMARK SMILES IDX 25 13 23 14 24 15 6 16 7 17 16 19 9 20 8 21 10 23 11 24
REMARK SMILES IDX 15 25 12 26 14 27 13 28
REMARK H PARENT
REMARK Flexibility Score:   55.900
ROOT
ATOM      1  C   UNL     1       3.722  43.597  52.153  1.00  0.00     0.139 C 
ENDROOT
BRANCH   1   2
ATOM      2  N   UNL     1       4.158  44.917  51.680  1.00  0.00    -0.354 N 
BRANCH   2   3
ATOM      3  C   UNL     1       5.564  45.173  51.521  1.00  0.00     0.137 A 
ATOM      4  C   UNL     1       7.543  44.808  50.273  1.00  0.00     0.130 A 
ATOM      5  N   UNL     1       6.212  44.633  50.457  1.00  0.00    -0.216 NA
ATOM      6  N   UNL     1       8.267  45.486  51.197  1.00  0.00    -0.214 NA
ATOM      7  C   UNL     1       7.687  46.046  52.292  1.00  0.00     0.162 A 
ATOM      8  C   UNL     1       6.283  45.947  52.458  1.00  0.00     0.036 A 
ATOM      9  C   UNL     1       8.226  44.175  49.107  1.00  0.00     0.090 C 
ATOM     10  C   UNL     1       5.565  46.666  53.571  1.00  0.00     0.052 C 
BRANCH   7  11
ATOM     11  N   UNL     1       8.528  46.710  53.252  1.00  0.00    -0.222 N 
ATOM     12  C   UNL     1       9.807  46.385  53.528  1.00  0.00     0.117 A 
ATOM     13  N   UNL     1       8.126  47.664  54.077  1.00  0.00    -0.175 NA
ATOM     14  C   UNL     1      10.249  47.185  54.558  1.00  0.00     0.042 A 
ATOM     15  C   UNL     1       9.163  47.978  54.877  1.00  0.00     0.135 A 
ENDBRANCH   7  11
ENDBRANCH   2   3
BRANCH   2  16
ATOM     16  C   UNL     1       3.193  45.774  50.980  1.00  0.00     0.120 C 
BRANCH  16  17
ATOM     17  C   UNL     1       2.496  46.730  51.955  1.00  0.00     0.043 CG0
ATOM     18  G   UNL     1       1.847  46.064  53.189  1.00  0.00     0.000 G0
ENDBRANCH  16  17
ENDBRANCH   2  16
ENDBRANCH   1   2
BRANCH   1  19
ATOM     19  C   UNL     1       2.762  43.709  53.341  1.00  0.00     0.138 C 
BRANCH  19  20
ATOM     20  N   UNL     1       1.635  44.608  53.040  1.00  0.00    -0.370 N 
BRANCH  20  21
ATOM     21  C   UNL     1       1.833  46.058  53.200  1.00  0.00     0.118 CG0
ATOM     22  G   UNL     1       2.502  46.727  51.978  1.00  0.00     0.000 G0
ENDBRANCH  20  21
BRANCH  20  23
ATOM     23  C   UNL     1       0.367  44.089  52.577  1.00  0.00     0.040 A 
ATOM     24  C   UNL     1       0.066  42.720  52.690  1.00  0.00     0.046 A 
ATOM     25  C   UNL     1      -0.576  44.934  51.964  1.00  0.00     0.046 A 
ATOM     26  C   UNL     1      -1.160  42.237  52.229  1.00  0.00     0.113 A 
ATOM     27  C   UNL     1      -1.791  44.409  51.516  1.00  0.00     0.113 A 
ATOM     28  N   UNL     1      -2.056  43.084  51.658  1.00  0.00    -0.265 NA
ENDBRANCH  20  23
ENDBRANCH  19  20
ENDBRANCH   1  19
TORSDOF 3
ENDMDL
MODEL 5
REMARK VINA RESULT:    -6.562      2.261      8.040
REMARK INTER + INTRA:          -9.572
REMARK INTER:                  -9.677
REMARK INTRA:                   0.104
REMARK UNBOUND:                 0.443
REMARK SMILES Cc1nc(N2CCCN(c3ccncc3)CC2)c(C)c(-n2cccn2)n1
REMARK SMILES IDX 17 1 5 2 4 3 2 4 3 5 26 6 20 7 18 8 1 9 19 10 21 11 22 12
REMARK SMILES IDX 25 13 23 14 24 15 6 16 7 17 16 19 9 20 8 21 10 23 11 24
REMARK SMILES IDX 15 25 12 26 14 27 13 28
REMARK H PARENT
REMARK Flexibility Score:   55.900
ROOT
ATOM      1  C   UNL     1       3.760  46.908  52.853  1.00  0.00     0.139 C 
ENDROOT
BRANCH   1   2
ATOM      2  N   UNL     1       3.505  45.616  53.502  1.00  0.00    -0.354 N 
BRANCH   2   3
ATOM      3  C   UNL     1       2.157  45.271  53.866  1.00  0.00     0.137 A 
ATOM      4  C   UNL     1       0.522  45.083  55.568  1.00  0.00     0.130 A 
ATOM      5  N   UNL     1       1.767  45.426  55.157  1.00  0.00    -0.216 NA
ATOM      6  N   UNL     1      -0.344  44.516  54.693  1.00  0.00    -0.214 NA
ATOM      7  C   UNL     1      -0.019  44.321  53.387  1.00  0.00     0.162 A 
ATOM      8  C   UNL     1       1.248  44.751  52.918  1.00  0.00     0.036 A 
ATOM      9  C   UNL     1       0.139  45.241  57.001  1.00  0.00     0.090 C 
ATOM     10  C   UNL     1       1.612  44.694  51.457  1.00  0.00     0.052 C 
BRANCH   7  11
ATOM     11  N   UNL     1      -0.974  43.671  52.530  1.00  0.00    -0.222 N 
ATOM     12  C   UNL     1      -1.867  44.298  51.737  1.00  0.00     0.117 A 
ATOM     13  N   UNL     1      -1.182  42.364  52.485  1.00  0.00    -0.175 NA
ATOM     14  C   UNL     1      -2.664  43.346  51.140  1.00  0.00     0.042 A 
ATOM     15  C   UNL     1      -2.203  42.141  51.634  1.00  0.00     0.135 A 
ENDBRANCH   7  11
ENDBRANCH   2   3
BRANCH   2  16
ATOM     16  C   UNL     1       4.505  44.549  53.376  1.00  0.00     0.120 C 
BRANCH  16  17
ATOM     17  C   UNL     1       5.064  44.482  51.949  1.00  0.00     0.043 CG0
ATOM     18  G   UNL     1       5.821  45.743  51.473  1.00  0.00     0.000 G0
ENDBRANCH  16  17
ENDBRANCH   2  16
ENDBRANCH   1   2
BRANCH   1  19
ATOM     19  C   UNL     1       5.151  47.449  53.195  1.00  0.00     0.138 C 
BRANCH  19  20
ATOM     20  N   UNL     1       6.210  46.676  52.526  1.00  0.00    -0.370 N 
BRANCH  20  21
ATOM     21  C   UNL     1       5.827  45.747  51.450  1.00  0.00     0.118 CG0
ATOM     22  G   UNL     1       5.075  44.495  51.956  1.00  0.00     0.000 G0
ENDBRANCH  20  21
BRANCH  20  23
ATOM     23  C   UNL     1       7.600  46.833  52.896  1.00  0.00     0.040 A 
ATOM     24  C   UNL     1       7.954  47.393  54.136  1.00  0.00     0.046 A 
ATOM     25  C   UNL     1       8.627  46.472  52.006  1.00  0.00     0.046 A 
ATOM     26  C   UNL     1       9.301  47.546  54.470  1.00  0.00     0.113 A 
ATOM     27  C   UNL     1       9.962  46.643  52.380  1.00  0.00     0.113 A 
ATOM     28  N   UNL     1      10.269  47.169  53.594  1.00  0.00    -0.265 NA
ENDBRANCH  20  23
ENDBRANCH  19  20
ENDBRANCH   1  19
TORSDOF 3
ENDMDL
