MODEL 1
REMARK VINA RESULT:    -8.311      0.000      0.000
REMARK INTER + INTRA:         -10.148
REMARK INTER:                  -9.769
REMARK INTRA:                  -0.379
REMARK UNBOUND:                -0.379
REMARK SMILES CC1(C)NC(=O)C[C@@H]1C(=O)N1CCC[C@]1(C)c1ccccc1
REMARK SMILES IDX 9 1 10 2 8 3 2 4 4 5 5 6 7 7 6 8 1 9 3 10 11 12 12 13 15 14
REMARK SMILES IDX 13 15 14 16 16 17 17 18 18 19 22 20 19 21 21 22 20 23
REMARK H PARENT 4 11
ROOT
ATOM      1  C   UNL     1       5.374  44.654  51.787  1.00  0.00     0.229 C 
ATOM      2  O   UNL     1       6.416  44.248  52.373  1.00  0.00    -0.274 OA
ENDROOT
BRANCH   1   3
ATOM      3  C   UNL     1       4.778  43.805  50.675  1.00  0.00     0.113 C 
ATOM      4  C   UNL     1       3.927  42.586  51.202  1.00  0.00     0.046 C 
ATOM      5  N   UNL     1       4.774  41.423  50.995  1.00  0.00    -0.350 N 
ATOM      6  C   UNL     1       5.874  41.765  50.180  1.00  0.00     0.221 C 
ATOM      7  C   UNL     1       5.893  43.189  49.795  1.00  0.00     0.116 C 
ATOM      8  O   UNL     1       6.723  40.920  49.792  1.00  0.00    -0.275 OA
ATOM      9  C   UNL     1       2.655  42.425  50.348  1.00  0.00     0.035 C 
ATOM     10  C   UNL     1       3.527  42.669  52.690  1.00  0.00     0.035 C 
ATOM     11  H   UNL     1       4.529  40.445  51.271  1.00  0.00     0.164 HD
ENDBRANCH   1   3
BRANCH   1  12
ATOM     12  N   UNL     1       4.740  45.876  52.230  1.00  0.00    -0.333 N 
ATOM     13  C   UNL     1       3.568  46.455  51.584  1.00  0.00     0.120 C 
ATOM     14  C   UNL     1       5.153  46.632  53.419  1.00  0.00     0.065 C 
ATOM     15  C   UNL     1       3.094  47.571  52.500  1.00  0.00     0.024 C 
ATOM     16  C   UNL     1       4.285  47.907  53.388  1.00  0.00     0.035 C 
ATOM     17  C   UNL     1       4.804  45.789  54.669  1.00  0.00     0.040 C 
BRANCH  14  18
ATOM     18  C   UNL     1       6.638  47.018  53.342  1.00  0.00    -0.023 A 
ATOM     19  C   UNL     1       7.225  47.498  52.151  1.00  0.00     0.006 A 
ATOM     20  C   UNL     1       7.478  46.792  54.455  1.00  0.00     0.006 A 
ATOM     21  C   UNL     1       8.590  47.797  52.099  1.00  0.00     0.000 A 
ATOM     22  C   UNL     1       8.842  47.094  54.396  1.00  0.00     0.000 A 
ATOM     23  C   UNL     1       9.396  47.602  53.222  1.00  0.00     0.000 A 
ENDBRANCH  14  18
ENDBRANCH   1  12
TORSDOF 3
ENDMDL
MODEL 2
REMARK VINA RESULT:    -8.309      1.690      2.394
REMARK INTER + INTRA:         -10.145
REMARK INTER:                 -10.248
REMARK INTRA:                   0.103
REMARK UNBOUND:                -0.379
REMARK SMILES CC1(C)NC(=O)C[C@@H]1C(=O)N1CCC[C@]1(C)c1ccccc1
REMARK SMILES IDX 9 1 10 2 8 3 2 4 4 5 5 6 7 7 6 8 1 9 3 10 11 12 12 13 15 14
REMARK SMILES IDX 13 15 14 16 16 17 17 18 18 19 22 20 19 21 21 22 20 23
REMARK H PARENT 4 11
ROOT
ATOM      1  C   UNL     1       5.474  44.192  51.183  1.00  0.00     0.229 C 
ATOM      2  O   UNL     1       5.422  43.121  51.849  1.00  0.00    -0.274 OA
ENDROOT
BRANCH   1   3
ATOM      3  C   UNL     1       6.095  44.167  49.796  1.00  0.00     0.113 C 
ATOM      4  C   UNL     1       6.489  42.720  49.308  1.00  0.00     0.046 C 
ATOM      5  N   UNL     1       7.935  42.661  49.445  1.00  0.00    -0.350 N 
ATOM      6  C   UNL     1       8.451  43.953  49.682  1.00  0.00     0.221 C 
ATOM      7  C   UNL     1       7.406  44.991  49.766  1.00  0.00     0.116 C 
ATOM      8  O   UNL     1       9.685  44.188  49.768  1.00  0.00    -0.275 OA
ATOM      9  C   UNL     1       6.128  42.550  47.820  1.00  0.00     0.035 C 
ATOM     10  C   UNL     1       5.852  41.569  50.115  1.00  0.00     0.035 C 
ATOM     11  H   UNL     1       8.524  41.821  49.240  1.00  0.00     0.164 HD
ENDBRANCH   1   3
BRANCH   1  12
ATOM     12  N   UNL     1       4.884  45.396  51.727  1.00  0.00    -0.333 N 
ATOM     13  C   UNL     1       3.679  46.016  51.190  1.00  0.00     0.120 C 
ATOM     14  C   UNL     1       5.383  46.088  52.922  1.00  0.00     0.065 C 
ATOM     15  C   UNL     1       3.279  47.089  52.190  1.00  0.00     0.024 C 
ATOM     16  C   UNL     1       4.530  47.370  53.011  1.00  0.00     0.035 C 
ATOM     17  C   UNL     1       5.109  45.186  54.150  1.00  0.00     0.040 C 
BRANCH  14  18
ATOM     18  C   UNL     1       6.865  46.465  52.766  1.00  0.00    -0.023 A 
ATOM     19  C   UNL     1       7.889  45.763  53.438  1.00  0.00     0.006 A 
ATOM     20  C   UNL     1       7.221  47.609  52.017  1.00  0.00     0.006 A 
ATOM     21  C   UNL     1       9.225  46.158  53.313  1.00  0.00     0.000 A 
ATOM     22  C   UNL     1       8.558  47.997  51.896  1.00  0.00     0.000 A 
ATOM     23  C   UNL     1       9.559  47.269  52.537  1.00  0.00     0.000 A 
ENDBRANCH  14  18
ENDBRANCH   1  12
TORSDOF 3
ENDMDL
MODEL 3
REMARK VINA RESULT:    -8.289      1.882      5.567
REMARK INTER + INTRA:         -10.121
REMARK INTER:                  -9.509
REMARK INTRA:                  -0.612
REMARK UNBOUND:                -0.379
REMARK SMILES CC1(C)NC(=O)C[C@@H]1C(=O)N1CCC[C@]1(C)c1ccccc1
REMARK SMILES IDX 9 1 10 2 8 3 2 4 4 5 5 6 7 7 6 8 1 9 3 10 11 12 12 13 15 14
REMARK SMILES IDX 13 15 14 16 16 17 17 18 18 19 22 20 19 21 21 22 20 23
REMARK H PARENT 4 11
ROOT
ATOM      1  C   UNL     1       6.206  45.693  53.325  1.00  0.00     0.229 C 
ATOM      2  O   UNL     1       6.909  44.654  53.467  1.00  0.00    -0.274 OA
ENDROOT
BRANCH   1   3
ATOM      3  C   UNL     1       6.893  47.049  53.308  1.00  0.00     0.113 C 
ATOM      4  C   UNL     1       8.057  47.152  52.249  1.00  0.00     0.046 C 
ATOM      5  N   UNL     1       9.280  47.067  53.031  1.00  0.00    -0.350 N 
ATOM      6  C   UNL     1       8.987  47.203  54.404  1.00  0.00     0.221 C 
ATOM      7  C   UNL     1       7.545  47.352  54.679  1.00  0.00     0.116 C 
ATOM      8  O   UNL     1       9.880  47.235  55.291  1.00  0.00    -0.275 OA
ATOM      9  C   UNL     1       8.014  48.525  51.552  1.00  0.00     0.035 C 
ATOM     10  C   UNL     1       8.058  46.042  51.177  1.00  0.00     0.035 C 
ATOM     11  H   UNL     1      10.247  47.066  52.634  1.00  0.00     0.164 HD
ENDBRANCH   1   3
BRANCH   1  12
ATOM     12  N   UNL     1       4.780  45.564  53.118  1.00  0.00    -0.333 N 
ATOM     13  C   UNL     1       3.789  45.814  54.157  1.00  0.00     0.120 C 
ATOM     14  C   UNL     1       4.164  45.240  51.825  1.00  0.00     0.065 C 
ATOM     15  C   UNL     1       2.439  45.806  53.459  1.00  0.00     0.024 C 
ATOM     16  C   UNL     1       2.664  45.075  52.142  1.00  0.00     0.035 C 
ATOM     17  C   UNL     1       4.372  46.446  50.878  1.00  0.00     0.040 C 
BRANCH  14  18
ATOM     18  C   UNL     1       4.719  43.923  51.261  1.00  0.00    -0.023 A 
ATOM     19  C   UNL     1       5.763  43.899  50.309  1.00  0.00     0.006 A 
ATOM     20  C   UNL     1       4.109  42.698  51.612  1.00  0.00     0.006 A 
ATOM     21  C   UNL     1       6.216  42.687  49.779  1.00  0.00     0.000 A 
ATOM     22  C   UNL     1       4.568  41.491  51.078  1.00  0.00     0.000 A 
ATOM     23  C   UNL     1       5.624  41.485  50.168  1.00  0.00     0.000 A 
ENDBRANCH  14  18
ENDBRANCH   1  12
TORSDOF 3
ENDMDL
MODEL 4
REMARK VINA RESULT:    -8.055      2.114      4.618
REMARK INTER + INTRA:          -9.847
REMARK INTER:                  -9.294
REMARK INTRA:                  -0.552
REMARK UNBOUND:                -0.379
REMARK SMILES CC1(C)NC(=O)C[C@@H]1C(=O)N1CCC[C@]1(C)c1ccccc1
REMARK SMILES IDX 9 1 10 2 8 3 2 4 4 5 5 6 7 7 6 8 1 9 3 10 11 12 12 13 15 14
REMARK SMILES IDX 13 15 14 16 16 17 17 18 18 19 22 20 19 21 21 22 20 23
REMARK H PARENT 4 11
ROOT
ATOM      1  C   UNL     1       5.094  44.524  53.194  1.00  0.00     0.229 C 
ATOM      2  O   UNL     1       5.595  43.927  54.188  1.00  0.00    -0.274 OA
ENDROOT
BRANCH   1   3
ATOM      3  C   UNL     1       4.083  45.633  53.435  1.00  0.00     0.113 C 
ATOM      4  C   UNL     1       4.491  46.615  54.599  1.00  0.00     0.046 C 
ATOM      5  N   UNL     1       3.643  46.240  55.719  1.00  0.00    -0.350 N 
ATOM      6  C   UNL     1       2.623  45.369  55.281  1.00  0.00     0.221 C 
ATOM      7  C   UNL     1       2.710  45.046  53.844  1.00  0.00     0.116 C 
ATOM      8  O   UNL     1       1.711  44.951  56.043  1.00  0.00    -0.275 OA
ATOM      9  C   UNL     1       4.166  48.067  54.200  1.00  0.00     0.035 C 
ATOM     10  C   UNL     1       5.971  46.532  55.029  1.00  0.00     0.035 C 
ATOM     11  H   UNL     1       3.680  46.671  56.671  1.00  0.00     0.164 HD
ENDBRANCH   1   3
BRANCH   1  12
ATOM     12  N   UNL     1       5.542  44.183  51.861  1.00  0.00    -0.333 N 
ATOM     13  C   UNL     1       5.465  42.838  51.305  1.00  0.00     0.120 C 
ATOM     14  C   UNL     1       6.052  45.160  50.892  1.00  0.00     0.065 C 
ATOM     15  C   UNL     1       5.801  42.975  49.829  1.00  0.00     0.024 C 
ATOM     16  C   UNL     1       6.526  44.307  49.697  1.00  0.00     0.035 C 
ATOM     17  C   UNL     1       4.876  46.067  50.457  1.00  0.00     0.040 C 
BRANCH  14  18
ATOM     18  C   UNL     1       7.241  45.944  51.469  1.00  0.00    -0.023 A 
ATOM     19  C   UNL     1       7.095  47.251  51.984  1.00  0.00     0.006 A 
ATOM     20  C   UNL     1       8.543  45.400  51.392  1.00  0.00     0.006 A 
ATOM     21  C   UNL     1       8.203  47.958  52.461  1.00  0.00     0.000 A 
ATOM     22  C   UNL     1       9.646  46.112  51.870  1.00  0.00     0.000 A 
ATOM     23  C   UNL     1       9.476  47.386  52.410  1.00  0.00     0.000 A 
ENDBRANCH  14  18
ENDBRANCH   1  12
TORSDOF 3
ENDMDL
MODEL 5
REMARK VINA RESULT:    -7.492      2.632      4.287
REMARK INTER + INTRA:          -9.184
REMARK INTER:                  -8.283
REMARK INTRA:                  -0.901
REMARK UNBOUND:                -0.379
REMARK SMILES CC1(C)NC(=O)C[C@@H]1C(=O)N1CCC[C@]1(C)c1ccccc1
REMARK SMILES IDX 9 1 10 2 8 3 2 4 4 5 5 6 7 7 6 8 1 9 3 10 11 12 12 13 15 14
REMARK SMILES IDX 13 15 14 16 16 17 17 18 18 19 22 20 19 21 21 22 20 23
REMARK H PARENT 4 11
ROOT
ATOM      1  C   UNL     1       3.576  43.257  51.820  1.00  0.00     0.229 C 
ATOM      2  O   UNL     1       3.561  42.268  52.605  1.00  0.00    -0.274 OA
ENDROOT
BRANCH   1   3
ATOM      3  C   UNL     1       2.297  44.053  51.615  1.00  0.00     0.113 C 
ATOM      4  C   UNL     1       1.640  44.546  52.960  1.00  0.00     0.046 C 
ATOM      5  N   UNL     1       0.502  43.664  53.165  1.00  0.00    -0.350 N 
ATOM      6  C   UNL     1       0.255  42.914  51.996  1.00  0.00     0.221 C 
ATOM      7  C   UNL     1       1.220  43.190  50.913  1.00  0.00     0.116 C 
ATOM      8  O   UNL     1      -0.719  42.125  51.886  1.00  0.00    -0.275 OA
ATOM      9  C   UNL     1       1.121  45.987  52.795  1.00  0.00     0.035 C 
ATOM     10  C   UNL     1       2.564  44.483  54.195  1.00  0.00     0.035 C 
ATOM     11  H   UNL     1      -0.138  43.691  53.992  1.00  0.00     0.164 HD
ENDBRANCH   1   3
BRANCH   1  12
ATOM     12  N   UNL     1       4.819  43.647  51.191  1.00  0.00    -0.333 N 
ATOM     13  C   UNL     1       5.682  42.719  50.469  1.00  0.00     0.120 C 
ATOM     14  C   UNL     1       5.318  45.027  51.141  1.00  0.00     0.065 C 
ATOM     15  C   UNL     1       6.727  43.575  49.773  1.00  0.00     0.024 C 
ATOM     16  C   UNL     1       6.719  44.909  50.507  1.00  0.00     0.035 C 
ATOM     17  C   UNL     1       4.386  45.841  50.211  1.00  0.00     0.040 C 
BRANCH  14  18
ATOM     18  C   UNL     1       5.439  45.624  52.552  1.00  0.00    -0.023 A 
ATOM     19  C   UNL     1       6.076  44.930  53.605  1.00  0.00     0.006 A 
ATOM     20  C   UNL     1       4.808  46.852  52.849  1.00  0.00     0.006 A 
ATOM     21  C   UNL     1       6.130  45.479  54.890  1.00  0.00     0.000 A 
ATOM     22  C   UNL     1       4.867  47.395  54.135  1.00  0.00     0.000 A 
ATOM     23  C   UNL     1       5.533  46.712  55.153  1.00  0.00     0.000 A 
ENDBRANCH  14  18
ENDBRANCH   1  12
TORSDOF 3
ENDMDL
