ligand_50_conformer_5_docked
     RDKit          3D

 42 45  0  0  0  0  0  0  0  0999 V2000
    4.5780   42.5350   51.2410 C   0  0  0  0  0  0  0  0  0  0  0  0
    4.4070   43.6710   52.1930 C   0  0  0  0  0  0  0  0  0  0  0  0
    3.1960   43.8740   52.8040 N   0  0  0  0  0  0  0  0  0  0  0  0
    2.9850   44.9190   53.6600 C   0  0  0  0  0  0  0  0  0  0  0  0
    1.7030   45.0950   54.2820 N   0  0  0  0  0  0  0  0  0  0  0  0
    0.4500   44.7220   53.6430 C   0  0  0  0  0  0  0  0  0  0  0  0
   -0.6250   44.9160   54.7030 C   0  0  0  0  0  0  0  0  0  0  0  0
    0.1170   44.9050   56.0440 C   0  0  2  0  0  0  0  0  0  0  0  0
   -0.5240   45.8250   57.0920 C   0  0  0  0  0  0  0  0  0  0  0  0
    0.4500   46.2640   57.9970 O   0  0  0  0  0  0  0  0  0  0  0  0
    1.5560   45.3090   55.7120 C   0  0  0  0  0  0  0  0  0  0  0  0
    4.0580   45.7800   53.8910 C   0  0  0  0  0  0  0  0  0  0  0  0
    4.2880   46.8350   54.7530 C   0  0  0  0  0  0  0  0  0  0  0  0
    5.5750   47.2350   54.6040 N   0  0  0  0  0  0  0  0  0  0  0  0
    6.1540   46.4740   53.6800 N   0  0  0  0  0  0  0  0  0  0  0  0
    7.5360   46.5960   53.2930 C   0  0  0  0  0  0  0  0  0  0  0  0
    7.9330   46.4510   51.9500 C   0  0  0  0  0  0  0  0  0  0  0  0
    9.2780   46.5830   51.5930 C   0  0  0  0  0  0  0  0  0  0  0  0
   10.2380   46.8670   52.5650 C   0  0  0  0  0  0  0  0  0  0  0  0
    9.8540   47.0260   53.8990 C   0  0  0  0  0  0  0  0  0  0  0  0
    8.5090   46.8970   54.2620 C   0  0  0  0  0  0  0  0  0  0  0  0
    5.2420   45.5800   53.2520 C   0  0  0  0  0  0  0  0  0  0  0  0
    5.4440   44.5330   52.4170 N   0  0  0  0  0  0  0  0  0  0  0  0
    4.7185   41.6015   51.8056 H   0  0  0  0  0  0  0  0  0  0  0  0
    3.6826   42.4493   50.6078 H   0  0  0  0  0  0  0  0  0  0  0  0
    5.4589   42.7167   50.6078 H   0  0  0  0  0  0  0  0  0  0  0  0
    0.2543   45.3689   52.7751 H   0  0  0  0  0  0  0  0  0  0  0  0
    0.4746   43.6861   53.2737 H   0  0  0  0  0  0  0  0  0  0  0  0
   -1.1406   45.8766   54.5566 H   0  0  0  0  0  0  0  0  0  0  0  0
   -1.3930   44.1300   54.6546 H   0  0  0  0  0  0  0  0  0  0  0  0
    0.0735   43.9102   56.5114 H   0  0  0  0  0  0  0  0  0  0  0  0
   -0.9733   46.6940   56.5891 H   0  0  0  0  0  0  0  0  0  0  0  0
   -1.3014   45.2690   57.6365 H   0  0  0  0  0  0  0  0  0  0  0  0
    0.4300   47.2560   57.9640 H   0  0  0  0  0  0  0  0  0  0  0  0
    1.7248   46.3670   55.9611 H   0  0  0  0  0  0  0  0  0  0  0  0
    2.2864   44.7220   56.2882 H   0  0  0  0  0  0  0  0  0  0  0  0
    3.5526   47.2753   55.4424 H   0  0  0  0  0  0  0  0  0  0  0  0
    7.1808   46.2327   51.1776 H   0  0  0  0  0  0  0  0  0  0  0  0
    9.5806   46.4626   50.5423 H   0  0  0  0  0  0  0  0  0  0  0  0
   11.2962   46.9656   52.2813 H   0  0  0  0  0  0  0  0  0  0  0  0
   10.6102   47.2529   54.6649 H   0  0  0  0  0  0  0  0  0  0  0  0
    8.2110   47.0319   55.3122 H   0  0  0  0  0  0  0  0  0  0  0  0
  1  2  1  0
  2  3  2  0
  3  4  1  0
  4  5  1  0
  5  6  1  0
  6  7  1  0
  7  8  1  0
  8  9  1  0
  9 10  1  0
  8 11  1  0
  4 12  2  0
 12 13  1  0
 13 14  2  0
 14 15  1  0
 15 16  1  0
 16 17  2  0
 17 18  1  0
 18 19  2  0
 19 20  1  0
 20 21  2  0
 15 22  1  0
 22 23  2  0
 23  2  1  0
 11  5  1  0
 22 12  1  0
 21 16  1  0
  1 24  1  0
  1 25  1  0
  1 26  1  0
  6 27  1  0
  6 28  1  0
  7 29  1  0
  7 30  1  0
  8 31  1  1
  9 32  1  0
  9 33  1  0
 10 34  1  0
 11 35  1  0
 11 36  1  0
 13 37  1  0
 17 38  1  0
 18 39  1  0
 19 40  1  0
 20 41  1  0
 21 42  1  0
M  END
>  <meeko>  (1) 
{"is_sidechain": [false], "free_energy": -8.866, "intermolecular_energy": -10.68, "internal_energy": -0.116}

$$$$
ligand_50_conformer_5_docked
     RDKit          3D

 42 45  0  0  0  0  0  0  0  0999 V2000
    5.5990   42.0980   50.2000 C   0  0  0  0  0  0  0  0  0  0  0  0
    4.9960   43.1270   51.0970 C   0  0  0  0  0  0  0  0  0  0  0  0
    3.6510   43.0960   51.3640 N   0  0  0  0  0  0  0  0  0  0  0  0
    3.0500   44.0340   52.1550 C   0  0  0  0  0  0  0  0  0  0  0  0
    1.6390   43.9640   52.4140 N   0  0  0  0  0  0  0  0  0  0  0  0
    1.0590   43.1110   53.4390 C   0  0  0  0  0  0  0  0  0  0  0  0
   -0.4190   43.4710   53.4860 C   0  0  0  0  0  0  0  0  0  0  0  0
   -0.5200   44.8610   52.8470 C   0  0  2  0  0  0  0  0  0  0  0  0
   -1.8310   45.0730   52.0780 C   0  0  0  0  0  0  0  0  0  0  0  0
   -2.1030   46.4440   51.9730 O   0  0  0  0  0  0  0  0  0  0  0  0
    0.7120   44.9820   51.9470 C   0  0  0  0  0  0  0  0  0  0  0  0
    3.8630   45.0350   52.6870 C   0  0  0  0  0  0  0  0  0  0  0  0
    3.6780   46.0530   53.6030 C   0  0  0  0  0  0  0  0  0  0  0  0
    4.8720   46.6580   53.8160 N   0  0  0  0  0  0  0  0  0  0  0  0
    5.7930   46.0620   53.0640 N   0  0  0  0  0  0  0  0  0  0  0  0
    7.1870   46.4240   53.0660 C   0  0  0  0  0  0  0  0  0  0  0  0
    7.9320   46.4640   51.8720 C   0  0  0  0  0  0  0  0  0  0  0  0
    9.2810   46.8280   51.8930 C   0  0  0  0  0  0  0  0  0  0  0  0
    9.8990   47.1630   53.1000 C   0  0  0  0  0  0  0  0  0  0  0  0
    9.1660   47.1410   54.2880 C   0  0  0  0  0  0  0  0  0  0  0  0
    7.8150   46.7790   54.2730 C   0  0  0  0  0  0  0  0  0  0  0  0
    5.1890   45.0670   52.3860 C   0  0  0  0  0  0  0  0  0  0  0  0
    5.7770   44.1230   51.6110 N   0  0  0  0  0  0  0  0  0  0  0  0
    6.0623   41.3074   50.8084 H   0  0  0  0  0  0  0  0  0  0  0  0
    4.8147   41.6600   49.5652 H   0  0  0  0  0  0  0  0  0  0  0  0
    6.3645   42.5682   49.5652 H   0  0  0  0  0  0  0  0  0  0  0  0
    1.1874   42.0512   53.1739 H   0  0  0  0  0  0  0  0  0  0  0  0
    1.5447   43.2606   54.4146 H   0  0  0  0  0  0  0  0  0  0  0  0
   -1.0113   42.7409   52.9149 H   0  0  0  0  0  0  0  0  0  0  0  0
   -0.8092   43.4642   54.5145 H   0  0  0  0  0  0  0  0  0  0  0  0
   -0.5389   45.6484   53.6149 H   0  0  0  0  0  0  0  0  0  0  0  0
   -1.7376   44.6410   51.0707 H   0  0  0  0  0  0  0  0  0  0  0  0
   -2.6528   44.5798   52.6178 H   0  0  0  0  0  0  0  0  0  0  0  0
   -2.3020   46.6120   51.0150 H   0  0  0  0  0  0  0  0  0  0  0  0
    0.4396   44.8005   50.8968 H   0  0  0  0  0  0  0  0  0  0  0  0
    1.1541   45.9881   51.9954 H   0  0  0  0  0  0  0  0  0  0  0  0
    2.7242   46.3258   54.0783 H   0  0  0  0  0  0  0  0  0  0  0  0
    7.4495   46.2073   50.9174 H   0  0  0  0  0  0  0  0  0  0  0  0
    9.8577   46.8508   50.9566 H   0  0  0  0  0  0  0  0  0  0  0  0
   10.9624   47.4439   53.1145 H   0  0  0  0  0  0  0  0  0  0  0  0
    9.6519   47.4089   55.2378 H   0  0  0  0  0  0  0  0  0  0  0  0
    7.2404   46.7720   55.2110 H   0  0  0  0  0  0  0  0  0  0  0  0
  1  2  1  0
  2  3  2  0
  3  4  1  0
  4  5  1  0
  5  6  1  0
  6  7  1  0
  7  8  1  0
  8  9  1  0
  9 10  1  0
  8 11  1  0
  4 12  2  0
 12 13  1  0
 13 14  2  0
 14 15  1  0
 15 16  1  0
 16 17  2  0
 17 18  1  0
 18 19  2  0
 19 20  1  0
 20 21  2  0
 15 22  1  0
 22 23  2  0
 23  2  1  0
 11  5  1  0
 22 12  1  0
 21 16  1  0
  1 24  1  0
  1 25  1  0
  1 26  1  0
  6 27  1  0
  6 28  1  0
  7 29  1  0
  7 30  1  0
  8 31  1  1
  9 32  1  0
  9 33  1  0
 10 34  1  0
 11 35  1  0
 11 36  1  0
 13 37  1  0
 17 38  1  0
 18 39  1  0
 19 40  1  0
 20 41  1  0
 21 42  1  0
M  END
>  <meeko>  (2) 
{"is_sidechain": [false], "free_energy": -8.818, "intermolecular_energy": -10.367, "internal_energy": -0.371}

$$$$
ligand_50_conformer_5_docked
     RDKit          3D

 42 45  0  0  0  0  0  0  0  0999 V2000
    4.8520   42.2280   50.4630 C   0  0  0  0  0  0  0  0  0  0  0  0
    4.8210   43.4400   51.3310 C   0  0  0  0  0  0  0  0  0  0  0  0
    5.9690   44.1610   51.5400 N   0  0  0  0  0  0  0  0  0  0  0  0
    5.9940   45.2610   52.3500 C   0  0  0  0  0  0  0  0  0  0  0  0
    7.2160   45.9920   52.5410 N   0  0  0  0  0  0  0  0  0  0  0  0
    7.8760   46.7290   51.4740 C   0  0  0  0  0  0  0  0  0  0  0  0
    9.0200   47.4790   52.1420 C   0  0  0  0  0  0  0  0  0  0  0  0
    8.6550   47.5390   53.6290 C   0  0  2  0  0  0  0  0  0  0  0  0
    9.8830   47.4870   54.5490 C   0  0  0  0  0  0  0  0  0  0  0  0
    9.6520   48.2650   55.6910 O   0  0  0  0  0  0  0  0  0  0  0  0
    7.7010   46.3640   53.8590 C   0  0  0  0  0  0  0  0  0  0  0  0
    4.7960   45.6280   52.9650 C   0  0  0  0  0  0  0  0  0  0  0  0
    4.3830   46.7070   53.7220 C   0  0  0  0  0  0  0  0  0  0  0  0
    3.0550   46.5770   53.9620 N   0  0  0  0  0  0  0  0  0  0  0  0
    2.6250   45.4570   53.3880 N   0  0  0  0  0  0  0  0  0  0  0  0
    1.2520   45.0220   53.4090 C   0  0  0  0  0  0  0  0  0  0  0  0
    0.3670   45.3540   52.3660 C   0  0  0  0  0  0  0  0  0  0  0  0
   -0.9600   44.9140   52.3980 C   0  0  0  0  0  0  0  0  0  0  0  0
   -1.4150   44.1350   53.4640 C   0  0  0  0  0  0  0  0  0  0  0  0
   -0.5420   43.7880   54.4970 C   0  0  0  0  0  0  0  0  0  0  0  0
    0.7870   44.2240   54.4690 C   0  0  0  0  0  0  0  0  0  0  0  0
    3.6750   44.8830   52.7700 C   0  0  0  0  0  0  0  0  0  0  0  0
    3.6590   43.8020   51.9530 N   0  0  0  0  0  0  0  0  0  0  0  0
    4.8751   41.3264   51.0928 H   0  0  0  0  0  0  0  0  0  0  0  0
    3.9541   42.2088   49.8279 H   0  0  0  0  0  0  0  0  0  0  0  0
    5.7498   42.2547   49.8279 H   0  0  0  0  0  0  0  0  0  0  0  0
    8.2637   46.0369   50.7120 H   0  0  0  0  0  0  0  0  0  0  0  0
    7.1832   47.4140   50.9633 H   0  0  0  0  0  0  0  0  0  0  0  0
    9.9683   46.9399   52.0001 H   0  0  0  0  0  0  0  0  0  0  0  0
    9.1558   48.4830   51.7136 H   0  0  0  0  0  0  0  0  0  0  0  0
    8.1811   48.4991   53.8814 H   0  0  0  0  0  0  0  0  0  0  0  0
   10.0715   46.4454   54.8484 H   0  0  0  0  0  0  0  0  0  0  0  0
   10.7576   47.8813   54.0110 H   0  0  0  0  0  0  0  0  0  0  0  0
    9.7600   49.2100   55.4080 H   0  0  0  0  0  0  0  0  0  0  0  0
    8.2341   45.5217   54.3240 H   0  0  0  0  0  0  0  0  0  0  0  0
    6.8766   46.6348   54.5350 H   0  0  0  0  0  0  0  0  0  0  0  0
    5.0225   47.5313   54.0707 H   0  0  0  0  0  0  0  0  0  0  0  0
    0.7212   45.9629   51.5211 H   0  0  0  0  0  0  0  0  0  0  0  0
   -1.6469   45.1821   51.5817 H   0  0  0  0  0  0  0  0  0  0  0  0
   -2.4608   43.7949   53.4899 H   0  0  0  0  0  0  0  0  0  0  0  0
   -0.8998   43.1708   55.3342 H   0  0  0  0  0  0  0  0  0  0  0  0
    1.4724   43.9407   55.2814 H   0  0  0  0  0  0  0  0  0  0  0  0
  1  2  1  0
  2  3  2  0
  3  4  1  0
  4  5  1  0
  5  6  1  0
  6  7  1  0
  7  8  1  0
  8  9  1  0
  9 10  1  0
  8 11  1  0
  4 12  2  0
 12 13  1  0
 13 14  2  0
 14 15  1  0
 15 16  1  0
 16 17  2  0
 17 18  1  0
 18 19  2  0
 19 20  1  0
 20 21  2  0
 15 22  1  0
 22 23  2  0
 23  2  1  0
 11  5  1  0
 22 12  1  0
 21 16  1  0
  1 24  1  0
  1 25  1  0
  1 26  1  0
  6 27  1  0
  6 28  1  0
  7 29  1  0
  7 30  1  0
  8 31  1  6
  9 32  1  0
  9 33  1  0
 10 34  1  0
 11 35  1  0
 11 36  1  0
 13 37  1  0
 17 38  1  0
 18 39  1  0
 19 40  1  0
 20 41  1  0
 21 42  1  0
M  END
>  <meeko>  (3) 
{"is_sidechain": [false], "free_energy": -8.336, "intermolecular_energy": -9.702, "internal_energy": -0.455}

$$$$
ligand_50_conformer_5_docked
     RDKit          3D

 42 45  0  0  0  0  0  0  0  0999 V2000
    3.0630   46.0600   56.3510 C   0  0  0  0  0  0  0  0  0  0  0  0
    3.1960   45.5390   54.9600 C   0  0  0  0  0  0  0  0  0  0  0  0
    2.1410   44.8940   54.3670 N   0  0  0  0  0  0  0  0  0  0  0  0
    2.2270   44.3750   53.1060 C   0  0  0  0  0  0  0  0  0  0  0  0
    1.0970   43.7100   52.5190 N   0  0  0  0  0  0  0  0  0  0  0  0
    0.5670   42.4510   53.0200 C   0  0  0  0  0  0  0  0  0  0  0  0
   -0.7090   42.2000   52.2300 C   0  0  0  0  0  0  0  0  0  0  0  0
   -1.1200   43.5680   51.6730 C   0  0  2  0  0  0  0  0  0  0  0  0
   -1.8030   43.4760   50.3020 C   0  0  0  0  0  0  0  0  0  0  0  0
   -0.8680   43.0940   49.3310 O   0  0  0  0  0  0  0  0  0  0  0  0
    0.1700   44.3910   51.6310 C   0  0  0  0  0  0  0  0  0  0  0  0
    3.4420   44.5260   52.4360 C   0  0  0  0  0  0  0  0  0  0  0  0
    3.8800   44.2710   51.1510 C   0  0  0  0  0  0  0  0  0  0  0  0
    5.1530   44.7250   51.0370 N   0  0  0  0  0  0  0  0  0  0  0  0
    5.5260   45.2470   52.2020 N   0  0  0  0  0  0  0  0  0  0  0  0
    6.8100   45.8590   52.4310 C   0  0  0  0  0  0  0  0  0  0  0  0
    7.2130   46.2450   53.7230 C   0  0  0  0  0  0  0  0  0  0  0  0
    8.4670   46.8280   53.9270 C   0  0  0  0  0  0  0  0  0  0  0  0
    9.3330   47.0250   52.8500 C   0  0  0  0  0  0  0  0  0  0  0  0
    8.9490   46.6340   51.5650 C   0  0  0  0  0  0  0  0  0  0  0  0
    7.6960   46.0480   51.3560 C   0  0  0  0  0  0  0  0  0  0  0  0
    4.4870   45.1410   53.0520 C   0  0  0  0  0  0  0  0  0  0  0  0
    4.3850   45.6650   54.2970 N   0  0  0  0  0  0  0  0  0  0  0  0
    3.2696   45.2508   57.0669 H   0  0  0  0  0  0  0  0  0  0  0  0
    3.7809   46.8789   56.5060 H   0  0  0  0  0  0  0  0  0  0  0  0
    2.0404   46.4346   56.5060 H   0  0  0  0  0  0  0  0  0  0  0  0
    1.2882   41.6374   52.8530 H   0  0  0  0  0  0  0  0  0  0  0  0
    0.3738   42.4929   54.1021 H   0  0  0  0  0  0  0  0  0  0  0  0
   -0.5206   41.4916   51.4099 H   0  0  0  0  0  0  0  0  0  0  0  0
   -1.4983   41.7603   52.8575 H   0  0  0  0  0  0  0  0  0  0  0  0
   -1.8810   44.0419   52.3104 H   0  0  0  0  0  0  0  0  0  0  0  0
   -2.6101   42.7299   50.3454 H   0  0  0  0  0  0  0  0  0  0  0  0
   -2.2207   44.4586   50.0375 H   0  0  0  0  0  0  0  0  0  0  0  0
   -1.2970   43.2630   48.4530 H   0  0  0  0  0  0  0  0  0  0  0  0
    0.5719   44.4230   50.6076 H   0  0  0  0  0  0  0  0  0  0  0  0
   -0.0011   45.4322   51.9420 H   0  0  0  0  0  0  0  0  0  0  0  0
    3.2964   43.7833   50.3563 H   0  0  0  0  0  0  0  0  0  0  0  0
    6.5376   46.0871   54.5768 H   0  0  0  0  0  0  0  0  0  0  0  0
    8.7722   47.1324   54.9390 H   0  0  0  0  0  0  0  0  0  0  0  0
   10.3174   47.4880   53.0131 H   0  0  0  0  0  0  0  0  0  0  0  0
    9.6325   46.7870   50.7168 H   0  0  0  0  0  0  0  0  0  0  0  0
    7.4021   45.7330   50.3439 H   0  0  0  0  0  0  0  0  0  0  0  0
  1  2  1  0
  2  3  2  0
  3  4  1  0
  4  5  1  0
  5  6  1  0
  6  7  1  0
  7  8  1  0
  8  9  1  0
  9 10  1  0
  8 11  1  0
  4 12  2  0
 12 13  1  0
 13 14  2  0
 14 15  1  0
 15 16  1  0
 16 17  2  0
 17 18  1  0
 18 19  2  0
 19 20  1  0
 20 21  2  0
 15 22  1  0
 22 23  2  0
 23  2  1  0
 11  5  1  0
 22 12  1  0
 21 16  1  0
  1 24  1  0
  1 25  1  0
  1 26  1  0
  6 27  1  0
  6 28  1  0
  7 29  1  0
  7 30  1  0
  8 31  1  1
  9 32  1  0
  9 33  1  0
 10 34  1  0
 11 35  1  0
 11 36  1  0
 13 37  1  0
 17 38  1  0
 18 39  1  0
 19 40  1  0
 20 41  1  0
 21 42  1  0
M  END
>  <meeko>  (4) 
{"is_sidechain": [false], "free_energy": -7.074, "intermolecular_energy": -8.461, "internal_energy": -0.175}

$$$$
ligand_50_conformer_5_docked
     RDKit          3D

 42 45  0  0  0  0  0  0  0  0999 V2000
    3.6330   43.2620   52.5700 C   0  0  0  0  0  0  0  0  0  0  0  0
    4.6140   43.2720   51.4460 C   0  0  0  0  0  0  0  0  0  0  0  0
    4.4140   42.4620   50.3570 N   0  0  0  0  0  0  0  0  0  0  0  0
    5.3000   42.4170   49.3180 C   0  0  0  0  0  0  0  0  0  0  0  0
    5.0530   41.5570   48.1940 N   0  0  0  0  0  0  0  0  0  0  0  0
    4.0360   40.5170   48.1970 C   0  0  0  0  0  0  0  0  0  0  0  0
    4.0000   39.9750   46.7750 C   0  0  0  0  0  0  0  0  0  0  0  0
    4.6310   41.0680   45.9060 C   0  0  2  0  0  0  0  0  0  0  0  0
    5.4090   40.5060   44.7080 C   0  0  0  0  0  0  0  0  0  0  0  0
    5.4810   41.4700   43.6950 O   0  0  0  0  0  0  0  0  0  0  0  0
    5.5210   41.8750   46.8550 C   0  0  0  0  0  0  0  0  0  0  0  0
    6.4280   43.2340   49.4060 C   0  0  0  0  0  0  0  0  0  0  0  0
    7.4560   43.5670   48.5450 C   0  0  0  0  0  0  0  0  0  0  0  0
    8.2280   44.5060   49.1440 N   0  0  0  0  0  0  0  0  0  0  0  0
    7.7250   44.7680   50.3480 N   0  0  0  0  0  0  0  0  0  0  0  0
    8.2730   45.7480   51.2490 C   0  0  0  0  0  0  0  0  0  0  0  0
    7.4590   46.7390   51.8300 C   0  0  0  0  0  0  0  0  0  0  0  0
    8.0070   47.6760   52.7110 C   0  0  0  0  0  0  0  0  0  0  0  0
    9.3660   47.6300   53.0280 C   0  0  0  0  0  0  0  0  0  0  0  0
   10.1800   46.6420   52.4690 C   0  0  0  0  0  0  0  0  0  0  0  0
    9.6360   45.7020   51.5880 C   0  0  0  0  0  0  0  0  0  0  0  0
    6.6250   44.0070   50.5070 C   0  0  0  0  0  0  0  0  0  0  0  0
    5.7310   44.0550   51.5250 N   0  0  0  0  0  0  0  0  0  0  0  0
    4.1732   43.2675   53.5282 H   0  0  0  0  0  0  0  0  0  0  0  0
    2.9921   44.1537   52.5053 H   0  0  0  0  0  0  0  0  0  0  0  0
    3.0104   42.3575   52.5053 H   0  0  0  0  0  0  0  0  0  0  0  0
    4.3047   39.7193   48.9052 H   0  0  0  0  0  0  0  0  0  0  0  0
    3.0559   40.9073   48.5086 H   0  0  0  0  0  0  0  0  0  0  0  0
    4.5807   39.0435   46.7035 H   0  0  0  0  0  0  0  0  0  0  0  0
    2.9750   39.7382   46.4536 H   0  0  0  0  0  0  0  0  0  0  0  0
    3.8586   41.6987   45.4417 H   0  0  0  0  0  0  0  0  0  0  0  0
    6.4262   40.2354   45.0276 H   0  0  0  0  0  0  0  0  0  0  0  0
    4.8914   39.6143   44.3247 H   0  0  0  0  0  0  0  0  0  0  0  0
    6.4400   41.7100   43.6090 H   0  0  0  0  0  0  0  0  0  0  0  0
    6.5744   41.5813   46.7365 H   0  0  0  0  0  0  0  0  0  0  0  0
    5.4631   42.9540   46.6489 H   0  0  0  0  0  0  0  0  0  0  0  0
    7.6199   43.1422   47.5437 H   0  0  0  0  0  0  0  0  0  0  0  0
    6.3863   46.7762   51.5895 H   0  0  0  0  0  0  0  0  0  0  0  0
    7.3659   48.4515   53.1556 H   0  0  0  0  0  0  0  0  0  0  0  0
    9.7955   48.3715   53.7177 H   0  0  0  0  0  0  0  0  0  0  0  0
   11.2498   46.6033   52.7220 H   0  0  0  0  0  0  0  0  0  0  0  0
   10.2797   44.9209   51.1572 H   0  0  0  0  0  0  0  0  0  0  0  0
  1  2  1  0
  2  3  2  0
  3  4  1  0
  4  5  1  0
  5  6  1  0
  6  7  1  0
  7  8  1  0
  8  9  1  0
  9 10  1  0
  8 11  1  0
  4 12  2  0
 12 13  1  0
 13 14  2  0
 14 15  1  0
 15 16  1  0
 16 17  2  0
 17 18  1  0
 18 19  2  0
 19 20  1  0
 20 21  2  0
 15 22  1  0
 22 23  2  0
 23  2  1  0
 11  5  1  0
 22 12  1  0
 21 16  1  0
  1 24  1  0
  1 25  1  0
  1 26  1  0
  6 27  1  0
  6 28  1  0
  7 29  1  0
  7 30  1  0
  8 31  1  6
  9 32  1  0
  9 33  1  0
 10 34  1  0
 11 35  1  0
 11 36  1  0
 13 37  1  0
 17 38  1  0
 18 39  1  0
 19 40  1  0
 20 41  1  0
 21 42  1  0
M  END
>  <meeko>  (5) 
{"is_sidechain": [false], "free_energy": -7.026, "intermolecular_energy": -8.65, "internal_energy": 0.071}

$$$$
