MODEL 1
REMARK VINA RESULT:    -8.354      0.000      0.000
REMARK INTER + INTRA:         -10.749
REMARK INTER:                 -10.796
REMARK INTRA:                   0.047
REMARK UNBOUND:                 0.047
REMARK SMILES CC1(Cn2cc(C(=O)N[C@@H]3C[C@H]3c3cccc(F)c3)nn2)COC1
REMARK SMILES IDX 4 1 5 2 6 3 20 4 21 5 3 6 2 7 22 8 24 9 23 10 1 11 7 12 8 13
REMARK SMILES IDX 9 14 10 16 11 17 12 18 13 19 14 20 19 21 15 22 17 23 16 24
REMARK SMILES IDX 18 25
REMARK H PARENT 9 15
ROOT
ATOM      1  N   UNL     1      -0.306  44.454  53.684  1.00  0.00    -0.251 N 
ATOM      2  C   UNL     1       0.957  44.858  53.901  1.00  0.00     0.145 A 
ATOM      3  C   UNL     1       1.300  45.635  52.814  1.00  0.00     0.170 A 
ATOM      4  N   UNL     1       0.243  45.682  51.977  1.00  0.00    -0.125 NA
ATOM      5  N   UNL     1      -0.718  44.958  52.531  1.00  0.00    -0.067 NA
ENDROOT
BRANCH   1   6
ATOM      6  C   UNL     1      -1.132  43.639  54.571  1.00  0.00     0.157 C 
BRANCH   6   7
ATOM      7  C   UNL     1      -1.957  44.519  55.536  1.00  0.00     0.034 C 
ATOM      8  C   UNL     1      -2.431  43.774  56.773  1.00  0.00     0.171 C 
ATOM      9  C   UNL     1      -1.134  45.300  56.547  1.00  0.00     0.171 C 
ATOM     10  O   UNL     1      -1.638  44.557  57.633  1.00  0.00    -0.380 OA
ATOM     11  C   UNL     1      -3.065  45.344  54.860  1.00  0.00     0.018 C 
ENDBRANCH   6   7
ENDBRANCH   1   6
BRANCH   3  12
ATOM     12  C   UNL     1       2.577  46.325  52.566  1.00  0.00     0.273 C 
ATOM     13  O   UNL     1       2.614  47.584  52.627  1.00  0.00    -0.267 OA
ATOM     14  N   UNL     1       3.771  45.589  52.262  1.00  0.00    -0.347 N 
ATOM     15  H   UNL     1       3.727  44.557  52.115  1.00  0.00     0.164 HD
BRANCH  14  16
ATOM     16  C   UNL     1       5.036  46.271  52.009  1.00  0.00     0.090 C 
ATOM     17  C   UNL     1       5.819  45.691  50.835  1.00  0.00     0.036 C 
ATOM     18  C   UNL     1       6.252  45.388  52.267  1.00  0.00     0.044 C 
BRANCH  18  19
ATOM     19  C   UNL     1       7.513  46.075  52.762  1.00  0.00    -0.040 A 
ATOM     20  C   UNL     1       7.572  46.844  53.946  1.00  0.00     0.004 A 
ATOM     21  C   UNL     1       8.682  45.929  51.994  1.00  0.00     0.043 A 
ATOM     22  C   UNL     1       8.772  47.445  54.340  1.00  0.00     0.003 A 
ATOM     23  C   UNL     1       9.878  46.533  52.394  1.00  0.00     0.123 A 
ATOM     24  C   UNL     1       9.922  47.290  53.567  1.00  0.00     0.039 A 
ATOM     25  F   UNL     1      10.997  46.383  51.642  1.00  0.00    -0.207 F 
ENDBRANCH  18  19
ENDBRANCH  14  16
ENDBRANCH   3  12
TORSDOF 5
ENDMDL
MODEL 2
REMARK VINA RESULT:    -8.047      2.175      2.821
REMARK INTER + INTRA:         -10.352
REMARK INTER:                 -10.348
REMARK INTRA:                  -0.004
REMARK UNBOUND:                 0.047
REMARK SMILES CC1(Cn2cc(C(=O)N[C@@H]3C[C@H]3c3cccc(F)c3)nn2)COC1
REMARK SMILES IDX 4 1 5 2 6 3 20 4 21 5 3 6 2 7 22 8 24 9 23 10 1 11 7 12 8 13
REMARK SMILES IDX 9 14 10 16 11 17 12 18 13 19 14 20 19 21 15 22 17 23 16 24
REMARK SMILES IDX 18 25
REMARK H PARENT 9 15
ROOT
ATOM      1  N   UNL     1      -0.329  44.880  53.341  1.00  0.00    -0.251 N 
ATOM      2  C   UNL     1       0.720  45.337  52.637  1.00  0.00     0.145 A 
ATOM      3  C   UNL     1       1.690  45.659  53.564  1.00  0.00     0.170 A 
ATOM      4  N   UNL     1       1.207  45.386  54.793  1.00  0.00    -0.125 NA
ATOM      5  N   UNL     1      -0.020  44.914  54.628  1.00  0.00    -0.067 NA
ENDROOT
BRANCH   1   6
ATOM      6  C   UNL     1      -1.592  44.377  52.808  1.00  0.00     0.157 C 
BRANCH   6   7
ATOM      7  C   UNL     1      -1.389  43.054  52.038  1.00  0.00     0.034 C 
ATOM      8  C   UNL     1      -2.690  42.421  51.573  1.00  0.00     0.171 C 
ATOM      9  C   UNL     1      -1.148  43.214  50.547  1.00  0.00     0.171 C 
ATOM     10  O   UNL     1      -2.375  42.607  50.213  1.00  0.00    -0.380 OA
ATOM     11  C   UNL     1      -0.438  42.056  52.721  1.00  0.00     0.018 C 
ENDBRANCH   6   7
ENDBRANCH   1   6
BRANCH   3  12
ATOM     12  C   UNL     1       3.037  46.196  53.310  1.00  0.00     0.273 C 
ATOM     13  O   UNL     1       3.563  46.959  54.166  1.00  0.00    -0.267 OA
ATOM     14  N   UNL     1       3.755  45.864  52.113  1.00  0.00    -0.347 N 
ATOM     15  H   UNL     1       3.289  45.313  51.358  1.00  0.00     0.164 HD
BRANCH  14  16
ATOM     16  C   UNL     1       5.087  46.400  51.855  1.00  0.00     0.090 C 
ATOM     17  C   UNL     1       5.887  45.588  50.840  1.00  0.00     0.036 C 
ATOM     18  C   UNL     1       6.204  45.477  52.330  1.00  0.00     0.044 C 
BRANCH  18  19
ATOM     19  C   UNL     1       7.488  46.134  52.809  1.00  0.00    -0.040 A 
ATOM     20  C   UNL     1       7.587  46.875  54.008  1.00  0.00     0.004 A 
ATOM     21  C   UNL     1       8.635  45.988  52.010  1.00  0.00     0.043 A 
ATOM     22  C   UNL     1       8.805  47.448  54.386  1.00  0.00     0.003 A 
ATOM     23  C   UNL     1       9.849  46.565  52.393  1.00  0.00     0.123 A 
ATOM     24  C   UNL     1       9.934  47.294  53.581  1.00  0.00     0.039 A 
ATOM     25  F   UNL     1      10.947  46.416  51.611  1.00  0.00    -0.207 F 
ENDBRANCH  18  19
ENDBRANCH  14  16
ENDBRANCH   3  12
TORSDOF 5
ENDMDL
MODEL 3
REMARK VINA RESULT:    -8.025      1.556      1.955
REMARK INTER + INTRA:         -10.324
REMARK INTER:                 -10.265
REMARK INTRA:                  -0.059
REMARK UNBOUND:                 0.047
REMARK SMILES CC1(Cn2cc(C(=O)N[C@@H]3C[C@H]3c3cccc(F)c3)nn2)COC1
REMARK SMILES IDX 4 1 5 2 6 3 20 4 21 5 3 6 2 7 22 8 24 9 23 10 1 11 7 12 8 13
REMARK SMILES IDX 9 14 10 16 11 17 12 18 13 19 14 20 19 21 15 22 17 23 16 24
REMARK SMILES IDX 18 25
REMARK H PARENT 9 15
ROOT
ATOM      1  N   UNL     1      -0.822  44.363  53.663  1.00  0.00    -0.251 N 
ATOM      2  C   UNL     1       0.365  43.799  53.943  1.00  0.00     0.145 A 
ATOM      3  C   UNL     1       1.288  44.433  53.136  1.00  0.00     0.170 A 
ATOM      4  N   UNL     1       0.640  45.358  52.399  1.00  0.00    -0.125 NA
ATOM      5  N   UNL     1      -0.639  45.294  52.740  1.00  0.00    -0.067 NA
ENDROOT
BRANCH   1   6
ATOM      6  C   UNL     1      -2.107  44.060  54.287  1.00  0.00     0.157 C 
BRANCH   6   7
ATOM      7  C   UNL     1      -2.300  44.862  55.593  1.00  0.00     0.034 C 
ATOM      8  C   UNL     1      -2.262  43.997  56.842  1.00  0.00     0.171 C 
ATOM      9  C   UNL     1      -1.025  45.443  56.179  1.00  0.00     0.171 C 
ATOM     10  O   UNL     1      -1.079  44.602  57.308  1.00  0.00    -0.380 OA
ATOM     11  C   UNL     1      -3.483  45.845  55.570  1.00  0.00     0.018 C 
ENDBRANCH   6   7
ENDBRANCH   1   6
BRANCH   3  12
ATOM     12  C   UNL     1       2.738  44.190  53.063  1.00  0.00     0.273 C 
ATOM     13  O   UNL     1       3.152  43.106  52.570  1.00  0.00    -0.267 OA
ATOM     14  N   UNL     1       3.679  45.165  53.537  1.00  0.00    -0.347 N 
ATOM     15  H   UNL     1       3.342  46.020  54.032  1.00  0.00     0.164 HD
BRANCH  14  16
ATOM     16  C   UNL     1       5.116  44.923  53.471  1.00  0.00     0.090 C 
ATOM     17  C   UNL     1       5.778  44.801  54.841  1.00  0.00     0.036 C 
ATOM     18  C   UNL     1       5.941  46.080  54.025  1.00  0.00     0.044 C 
BRANCH  18  19
ATOM     19  C   UNL     1       7.302  46.322  53.394  1.00  0.00    -0.040 A 
ATOM     20  C   UNL     1       7.585  46.088  52.030  1.00  0.00     0.004 A 
ATOM     21  C   UNL     1       8.329  46.810  54.221  1.00  0.00     0.043 A 
ATOM     22  C   UNL     1       8.863  46.338  51.519  1.00  0.00     0.003 A 
ATOM     23  C   UNL     1       9.604  47.058  53.705  1.00  0.00     0.123 A 
ATOM     24  C   UNL     1       9.870  46.822  52.355  1.00  0.00     0.039 A 
ATOM     25  F   UNL     1      10.584  47.527  54.516  1.00  0.00    -0.207 F 
ENDBRANCH  18  19
ENDBRANCH  14  16
ENDBRANCH   3  12
TORSDOF 5
ENDMDL
MODEL 4
REMARK VINA RESULT:    -7.947      2.333      2.825
REMARK INTER + INTRA:         -10.223
REMARK INTER:                 -10.475
REMARK INTRA:                   0.252
REMARK UNBOUND:                 0.047
REMARK SMILES CC1(Cn2cc(C(=O)N[C@@H]3C[C@H]3c3cccc(F)c3)nn2)COC1
REMARK SMILES IDX 4 1 5 2 6 3 20 4 21 5 3 6 2 7 22 8 24 9 23 10 1 11 7 12 8 13
REMARK SMILES IDX 9 14 10 16 11 17 12 18 13 19 14 20 19 21 15 22 17 23 16 24
REMARK SMILES IDX 18 25
REMARK H PARENT 9 15
ROOT
ATOM      1  N   UNL     1       0.594  42.766  52.202  1.00  0.00    -0.251 N 
ATOM      2  C   UNL     1       1.609  43.161  52.989  1.00  0.00     0.145 A 
ATOM      3  C   UNL     1       2.693  43.335  52.154  1.00  0.00     0.170 A 
ATOM      4  N   UNL     1       2.307  43.046  50.894  1.00  0.00    -0.125 NA
ATOM      5  N   UNL     1       1.028  42.705  50.953  1.00  0.00    -0.067 NA
ENDROOT
BRANCH   1   6
ATOM      6  C   UNL     1      -0.780  42.490  52.613  1.00  0.00     0.157 C 
BRANCH   6   7
ATOM      7  C   UNL     1      -1.491  43.774  53.094  1.00  0.00     0.034 C 
ATOM      8  C   UNL     1      -2.995  43.613  53.234  1.00  0.00     0.171 C 
ATOM      9  C   UNL     1      -1.553  43.942  54.602  1.00  0.00     0.171 C 
ATOM     10  O   UNL     1      -2.954  43.787  54.630  1.00  0.00    -0.380 OA
ATOM     11  C   UNL     1      -1.084  45.050  52.338  1.00  0.00     0.018 C 
ENDBRANCH   6   7
ENDBRANCH   1   6
BRANCH   3  12
ATOM     12  C   UNL     1       4.052  43.770  52.519  1.00  0.00     0.273 C 
ATOM     13  O   UNL     1       4.995  43.577  51.705  1.00  0.00    -0.267 OA
ATOM     14  N   UNL     1       4.314  44.408  53.777  1.00  0.00    -0.347 N 
ATOM     15  H   UNL     1       3.558  44.484  54.494  1.00  0.00     0.164 HD
BRANCH  14  16
ATOM     16  C   UNL     1       5.660  44.834  54.144  1.00  0.00     0.090 C 
ATOM     17  C   UNL     1       5.688  46.075  55.033  1.00  0.00     0.036 C 
ATOM     18  C   UNL     1       6.041  46.187  53.552  1.00  0.00     0.044 C 
BRANCH  18  19
ATOM     19  C   UNL     1       7.505  46.405  53.210  1.00  0.00    -0.040 A 
ATOM     20  C   UNL     1       8.045  46.208  51.919  1.00  0.00     0.004 A 
ATOM     21  C   UNL     1       8.361  46.829  54.241  1.00  0.00     0.043 A 
ATOM     22  C   UNL     1       9.403  46.433  51.679  1.00  0.00     0.003 A 
ATOM     23  C   UNL     1       9.719  47.051  53.995  1.00  0.00     0.123 A 
ATOM     24  C   UNL     1      10.239  46.853  52.714  1.00  0.00     0.039 A 
ATOM     25  F   UNL     1      10.532  47.459  55.000  1.00  0.00    -0.207 F 
ENDBRANCH  18  19
ENDBRANCH  14  16
ENDBRANCH   3  12
TORSDOF 5
ENDMDL
MODEL 5
REMARK VINA RESULT:    -7.847      5.484      7.583
REMARK INTER + INTRA:         -10.094
REMARK INTER:                 -10.088
REMARK INTRA:                  -0.006
REMARK UNBOUND:                 0.047
REMARK SMILES CC1(Cn2cc(C(=O)N[C@@H]3C[C@H]3c3cccc(F)c3)nn2)COC1
REMARK SMILES IDX 4 1 5 2 6 3 20 4 21 5 3 6 2 7 22 8 24 9 23 10 1 11 7 12 8 13
REMARK SMILES IDX 9 14 10 16 11 17 12 18 13 19 14 20 19 21 15 22 17 23 16 24
REMARK SMILES IDX 18 25
REMARK H PARENT 9 15
ROOT
ATOM      1  N   UNL     1       3.859  40.156  47.555  1.00  0.00    -0.251 N 
ATOM      2  C   UNL     1       4.767  41.073  47.932  1.00  0.00     0.145 A 
ATOM      3  C   UNL     1       4.560  41.282  49.280  1.00  0.00     0.170 A 
ATOM      4  N   UNL     1       3.544  40.489  49.680  1.00  0.00    -0.125 NA
ATOM      5  N   UNL     1       3.139  39.817  48.613  1.00  0.00    -0.067 NA
ENDROOT
BRANCH   1   6
ATOM      6  C   UNL     1       3.698  39.574  46.226  1.00  0.00     0.157 C 
BRANCH   6   7
ATOM      7  C   UNL     1       3.357  40.655  45.177  1.00  0.00     0.034 C 
ATOM      8  C   UNL     1       2.629  40.108  43.961  1.00  0.00     0.171 C 
ATOM      9  C   UNL     1       2.042  41.379  45.410  1.00  0.00     0.171 C 
ATOM     10  O   UNL     1       1.453  40.825  44.257  1.00  0.00    -0.380 OA
ATOM     11  C   UNL     1       4.528  41.586  44.816  1.00  0.00     0.018 C 
ENDBRANCH   6   7
ENDBRANCH   1   6
BRANCH   3  12
ATOM     12  C   UNL     1       5.299  42.188  50.175  1.00  0.00     0.273 C 
ATOM     13  O   UNL     1       6.546  42.044  50.297  1.00  0.00    -0.267 OA
ATOM     14  N   UNL     1       4.625  43.227  50.900  1.00  0.00    -0.347 N 
ATOM     15  H   UNL     1       3.583  43.290  50.878  1.00  0.00     0.164 HD
BRANCH  14  16
ATOM     16  C   UNL     1       5.354  44.122  51.793  1.00  0.00     0.090 C 
ATOM     17  C   UNL     1       4.562  45.364  52.192  1.00  0.00     0.036 C 
ATOM     18  C   UNL     1       5.678  45.468  51.154  1.00  0.00     0.044 C 
BRANCH  18  19
ATOM     19  C   UNL     1       6.962  46.150  51.594  1.00  0.00    -0.040 A 
ATOM     20  C   UNL     1       6.995  47.334  52.364  1.00  0.00     0.004 A 
ATOM     21  C   UNL     1       8.180  45.561  51.211  1.00  0.00     0.043 A 
ATOM     22  C   UNL     1       8.217  47.903  52.734  1.00  0.00     0.003 A 
ATOM     23  C   UNL     1       9.398  46.135  51.584  1.00  0.00     0.123 A 
ATOM     24  C   UNL     1       9.417  47.306  52.346  1.00  0.00     0.039 A 
ATOM     25  F   UNL     1      10.564  45.555  51.207  1.00  0.00    -0.207 F 
ENDBRANCH  18  19
ENDBRANCH  14  16
ENDBRANCH   3  12
TORSDOF 5
ENDMDL
