ligand_42_conformer_5_docked
     RDKit          3D

 47 49  0  0  0  0  0  0  0  0999 V2000
    0.7590   45.2720   55.9870 C   0  0  0  0  0  0  0  0  0  0  0  0
    1.4580   44.3140   55.2140 O   0  0  0  0  0  0  0  0  0  0  0  0
    1.4500   44.6030   53.8170 C   0  0  1  0  0  0  0  0  0  0  0  0
    2.3810   45.7520   53.4340 C   0  0  0  0  0  0  0  0  0  0  0  0
    2.0090   46.8100   52.6790 N   0  0  0  0  0  0  0  0  0  0  0  0
    3.0640   47.6070   52.5690 N   0  0  0  0  0  0  0  0  0  0  0  0
    4.0590   47.0260   53.2630 C   0  0  0  0  0  0  0  0  0  0  0  0
    3.6630   45.8800   53.8310 N   0  0  0  0  0  0  0  0  0  0  0  0
    4.5220   44.9770   54.5890 C   0  0  0  0  0  0  0  0  0  0  0  0
    5.6890   45.7640   55.1970 C   0  0  0  0  0  0  0  0  0  0  0  0
    6.2960   46.6610   54.1930 N   0  0  0  0  0  0  0  0  0  0  0  0
    7.7220   46.8690   54.1740 C   0  0  0  0  0  0  0  0  0  0  0  0
    8.2520   47.6960   54.9650 O   0  0  0  0  0  0  0  0  0  0  0  0
    8.5140   46.1440   53.2670 O   0  0  0  0  0  0  0  0  0  0  0  0
    8.7820   46.4910   51.9010 C   0  0  0  0  0  0  0  0  0  0  0  0
    7.8440   45.7230   50.9510 C   0  0  0  0  0  0  0  0  0  0  0  0
    8.6460   48.0110   51.6920 C   0  0  0  0  0  0  0  0  0  0  0  0
   10.2320   46.0770   51.6060 C   0  0  0  0  0  0  0  0  0  0  0  0
    5.4440   47.5720   53.4060 C   0  0  0  0  0  0  0  0  0  0  0  0
    1.8480   43.3440   53.0780 C   0  0  0  0  0  0  0  0  0  0  0  0
    0.5360   42.5980   52.9170 C   0  0  0  0  0  0  0  0  0  0  0  0
   -0.5380   43.4940   53.0810 O   0  0  0  0  0  0  0  0  0  0  0  0
    0.0130   44.7690   53.3050 C   0  0  0  0  0  0  0  0  0  0  0  0
    0.9117   45.0627   57.0560 H   0  0  0  0  0  0  0  0  0  0  0  0
    1.1366   46.2783   55.7528 H   0  0  0  0  0  0  0  0  0  0  0  0
   -0.3145   45.2195   55.7528 H   0  0  0  0  0  0  0  0  0  0  0  0
    3.9385   44.5072   55.3945 H   0  0  0  0  0  0  0  0  0  0  0  0
    4.9166   44.2000   53.9178 H   0  0  0  0  0  0  0  0  0  0  0  0
    5.3181   46.3651   56.0403 H   0  0  0  0  0  0  0  0  0  0  0  0
    6.4532   45.0517   55.5414 H   0  0  0  0  0  0  0  0  0  0  0  0
    7.1257   45.1349   51.5411 H   0  0  0  0  0  0  0  0  0  0  0  0
    7.2992   46.4377   50.3167 H   0  0  0  0  0  0  0  0  0  0  0  0
    8.4371   45.0479   50.3167 H   0  0  0  0  0  0  0  0  0  0  0  0
    8.6011   48.5130   52.6698 H   0  0  0  0  0  0  0  0  0  0  0  0
    9.5145   48.3828   51.1285 H   0  0  0  0  0  0  0  0  0  0  0  0
    7.7253   48.2227   51.1285 H   0  0  0  0  0  0  0  0  0  0  0  0
   10.7695   45.9235   52.5534 H   0  0  0  0  0  0  0  0  0  0  0  0
   10.2357   45.1419   51.0267 H   0  0  0  0  0  0  0  0  0  0  0  0
   10.7289   46.8692   51.0267 H   0  0  0  0  0  0  0  0  0  0  0  0
    5.3952   48.5465   53.9139 H   0  0  0  0  0  0  0  0  0  0  0  0
    5.8819   47.6800   52.4027 H   0  0  0  0  0  0  0  0  0  0  0  0
    2.2861   43.5850   52.0982 H   0  0  0  0  0  0  0  0  0  0  0  0
    2.6116   42.7579   53.6104 H   0  0  0  0  0  0  0  0  0  0  0  0
    0.4898   42.1504   51.9133 H   0  0  0  0  0  0  0  0  0  0  0  0
    0.4703   41.8048   53.6763 H   0  0  0  0  0  0  0  0  0  0  0  0
    0.0191   45.3397   52.3646 H   0  0  0  0  0  0  0  0  0  0  0  0
   -0.5889   45.3111   54.0492 H   0  0  0  0  0  0  0  0  0  0  0  0
  1  2  1  0
  3  2  1  1
  3  4  1  0
  4  5  2  0
  5  6  1  0
  6  7  2  0
  7  8  1  0
  8  9  1  0
  9 10  1  0
 10 11  1  0
 11 12  1  0
 12 13  2  0
 12 14  1  0
 14 15  1  0
 15 16  1  0
 15 17  1  0
 15 18  1  0
 11 19  1  0
  3 20  1  0
 20 21  1  0
 21 22  1  0
 22 23  1  0
 23  3  1  0
  8  4  1  0
 19  7  1  0
  1 24  1  0
  1 25  1  0
  1 26  1  0
  9 27  1  0
  9 28  1  0
 10 29  1  0
 10 30  1  0
 16 31  1  0
 16 32  1  0
 16 33  1  0
 17 34  1  0
 17 35  1  0
 17 36  1  0
 18 37  1  0
 18 38  1  0
 18 39  1  0
 19 40  1  0
 19 41  1  0
 20 42  1  0
 20 43  1  0
 21 44  1  0
 21 45  1  0
 23 46  1  0
 23 47  1  0
M  END
>  <meeko>  (1) 
{"is_sidechain": [false], "free_energy": -8.119, "intermolecular_energy": -10.492, "internal_energy": -0.499}

$$$$
ligand_42_conformer_5_docked
     RDKit          3D

 47 49  0  0  0  0  0  0  0  0999 V2000
    2.4860   43.2330   51.3160 C   0  0  0  0  0  0  0  0  0  0  0  0
    2.1420   43.1720   52.6880 O   0  0  0  0  0  0  0  0  0  0  0  0
    1.5160   44.3610   53.1670 C   0  0  1  0  0  0  0  0  0  0  0  0
    2.3930   45.6030   53.0180 C   0  0  0  0  0  0  0  0  0  0  0  0
    1.9910   46.7480   52.4220 N   0  0  0  0  0  0  0  0  0  0  0  0
    3.0010   47.6060   52.4920 N   0  0  0  0  0  0  0  0  0  0  0  0
    3.9990   46.9720   53.1350 C   0  0  0  0  0  0  0  0  0  0  0  0
    3.6480   45.7310   53.4940 N   0  0  0  0  0  0  0  0  0  0  0  0
    4.5260   44.7640   54.1420 C   0  0  0  0  0  0  0  0  0  0  0  0
    5.6180   45.5020   54.9240 C   0  0  0  0  0  0  0  0  0  0  0  0
    6.2130   46.5790   54.1070 N   0  0  0  0  0  0  0  0  0  0  0  0
    7.6240   46.8600   54.1920 C   0  0  0  0  0  0  0  0  0  0  0  0
    8.0500   47.7130   55.0180 O   0  0  0  0  0  0  0  0  0  0  0  0
    8.5170   46.1760   53.3500 O   0  0  0  0  0  0  0  0  0  0  0  0
    8.8040   46.4880   51.9790 C   0  0  0  0  0  0  0  0  0  0  0  0
   10.2550   46.1070   51.6280 C   0  0  0  0  0  0  0  0  0  0  0  0
    7.8110   45.7750   51.0410 C   0  0  0  0  0  0  0  0  0  0  0  0
    8.6370   48.0060   51.8150 C   0  0  0  0  0  0  0  0  0  0  0  0
    5.3420   47.5590   53.4310 C   0  0  0  0  0  0  0  0  0  0  0  0
    0.2210   44.5450   52.4090 C   0  0  0  0  0  0  0  0  0  0  0  0
   -0.7750   43.7180   53.2020 C   0  0  0  0  0  0  0  0  0  0  0  0
   -0.2710   43.4930   54.4980 O   0  0  0  0  0  0  0  0  0  0  0  0
    0.9690   44.1530   54.5850 C   0  0  0  0  0  0  0  0  0  0  0  0
    3.5647   43.4243   51.2166 H   0  0  0  0  0  0  0  0  0  0  0  0
    2.2371   42.2767   50.8327 H   0  0  0  0  0  0  0  0  0  0  0  0
    1.9235   44.0454   50.8327 H   0  0  0  0  0  0  0  0  0  0  0  0
    3.9383   44.1418   54.8330 H   0  0  0  0  0  0  0  0  0  0  0  0
    4.9931   44.1259   53.3774 H   0  0  0  0  0  0  0  0  0  0  0  0
    5.1777   45.9398   55.8320 H   0  0  0  0  0  0  0  0  0  0  0  0
    6.4079   44.7837   55.1888 H   0  0  0  0  0  0  0  0  0  0  0  0
   10.8288   45.9563   52.5543 H   0  0  0  0  0  0  0  0  0  0  0  0
   10.2580   45.1776   51.0396 H   0  0  0  0  0  0  0  0  0  0  0  0
   10.7142   46.9150   51.0396 H   0  0  0  0  0  0  0  0  0  0  0  0
    7.0619   45.2371   51.6406 H   0  0  0  0  0  0  0  0  0  0  0  0
    7.3073   46.5190   50.4064 H   0  0  0  0  0  0  0  0  0  0  0  0
    8.3550   45.0599   50.4064 H   0  0  0  0  0  0  0  0  0  0  0  0
    8.5850   48.4785   52.8070 H   0  0  0  0  0  0  0  0  0  0  0  0
    9.4959   48.4116   51.2603 H   0  0  0  0  0  0  0  0  0  0  0  0
    7.7104   48.2151   51.2603 H   0  0  0  0  0  0  0  0  0  0  0  0
    5.2149   48.4361   54.0825 H   0  0  0  0  0  0  0  0  0  0  0  0
    5.8139   47.8483   52.4804 H   0  0  0  0  0  0  0  0  0  0  0  0
   -0.0755   45.6041   52.3886 H   0  0  0  0  0  0  0  0  0  0  0  0
    0.2932   44.2346   51.3562 H   0  0  0  0  0  0  0  0  0  0  0  0
   -1.7303   44.2592   53.2688 H   0  0  0  0  0  0  0  0  0  0  0  0
   -0.9349   42.7535   52.6979 H   0  0  0  0  0  0  0  0  0  0  0  0
    0.8358   45.1278   55.0770 H   0  0  0  0  0  0  0  0  0  0  0  0
    1.6747   43.5488   55.1740 H   0  0  0  0  0  0  0  0  0  0  0  0
  1  2  1  0
  3  2  1  6
  3  4  1  0
  4  5  2  0
  5  6  1  0
  6  7  2  0
  7  8  1  0
  8  9  1  0
  9 10  1  0
 10 11  1  0
 11 12  1  0
 12 13  2  0
 12 14  1  0
 14 15  1  0
 15 16  1  0
 15 17  1  0
 15 18  1  0
 11 19  1  0
  3 20  1  0
 20 21  1  0
 21 22  1  0
 22 23  1  0
 23  3  1  0
  8  4  1  0
 19  7  1  0
  1 24  1  0
  1 25  1  0
  1 26  1  0
  9 27  1  0
  9 28  1  0
 10 29  1  0
 10 30  1  0
 16 31  1  0
 16 32  1  0
 16 33  1  0
 17 34  1  0
 17 35  1  0
 17 36  1  0
 18 37  1  0
 18 38  1  0
 18 39  1  0
 19 40  1  0
 19 41  1  0
 20 42  1  0
 20 43  1  0
 21 44  1  0
 21 45  1  0
 23 46  1  0
 23 47  1  0
M  END
>  <meeko>  (2) 
{"is_sidechain": [false], "free_energy": -7.925, "intermolecular_energy": -10.2, "internal_energy": -0.54}

$$$$
ligand_42_conformer_5_docked
     RDKit          3D

 47 49  0  0  0  0  0  0  0  0999 V2000
   -0.6330   44.7930   51.4970 C   0  0  0  0  0  0  0  0  0  0  0  0
   -0.0410   45.2550   52.6970 O   0  0  0  0  0  0  0  0  0  0  0  0
    0.5230   44.2090   53.4870 C   0  0  1  0  0  0  0  0  0  0  0  0
    1.9820   43.9150   53.1420 C   0  0  0  0  0  0  0  0  0  0  0  0
    2.4080   42.7740   52.5570 N   0  0  0  0  0  0  0  0  0  0  0  0
    3.7210   42.8770   52.3970 N   0  0  0  0  0  0  0  0  0  0  0  0
    4.0730   44.0820   52.8820 C   0  0  0  0  0  0  0  0  0  0  0  0
    3.0130   44.7620   53.3350 N   0  0  0  0  0  0  0  0  0  0  0  0
    3.0670   46.0670   53.9850 C   0  0  0  0  0  0  0  0  0  0  0  0
    4.3150   46.8250   53.5170 C   0  0  0  0  0  0  0  0  0  0  0  0
    5.5050   45.9520   53.5560 N   0  0  0  0  0  0  0  0  0  0  0  0
    6.7850   46.4860   53.9500 C   0  0  0  0  0  0  0  0  0  0  0  0
    6.8620   47.2970   54.9120 O   0  0  0  0  0  0  0  0  0  0  0  0
    7.9400   46.0940   53.2540 O   0  0  0  0  0  0  0  0  0  0  0  0
    8.9790   46.9570   52.7700 C   0  0  0  0  0  0  0  0  0  0  0  0
    8.3790   48.1630   52.0230 C   0  0  0  0  0  0  0  0  0  0  0  0
    9.8780   47.4270   53.9310 C   0  0  0  0  0  0  0  0  0  0  0  0
    9.8280   46.1380   51.7860 C   0  0  0  0  0  0  0  0  0  0  0  0
    5.4670   44.6230   52.9170 C   0  0  0  0  0  0  0  0  0  0  0  0
    0.4020   44.6050   54.9410 C   0  0  0  0  0  0  0  0  0  0  0  0
   -0.9860   44.1280   55.3250 C   0  0  0  0  0  0  0  0  0  0  0  0
   -1.4220   43.1590   54.4000 O   0  0  0  0  0  0  0  0  0  0  0  0
   -0.3820   42.9700   53.4710 C   0  0  0  0  0  0  0  0  0  0  0  0
   -1.4794   44.1325   51.7363 H   0  0  0  0  0  0  0  0  0  0  0  0
   -0.9924   45.6518   50.9111 H   0  0  0  0  0  0  0  0  0  0  0  0
    0.1128   44.2357   50.9111 H   0  0  0  0  0  0  0  0  0  0  0  0
    2.1683   46.6442   53.7220 H   0  0  0  0  0  0  0  0  0  0  0  0
    3.1112   45.9298   55.0755 H   0  0  0  0  0  0  0  0  0  0  0  0
    4.1585   47.1753   52.4861 H   0  0  0  0  0  0  0  0  0  0  0  0
    4.4820   47.6784   54.1906 H   0  0  0  0  0  0  0  0  0  0  0  0
    8.0121   48.9004   52.7521 H   0  0  0  0  0  0  0  0  0  0  0  0
    9.1523   48.6250   51.3917 H   0  0  0  0  0  0  0  0  0  0  0  0
    7.5441   47.8249   51.3917 H   0  0  0  0  0  0  0  0  0  0  0  0
    9.3997   47.1769   54.8895 H   0  0  0  0  0  0  0  0  0  0  0  0
   10.8540   46.9238   53.8659 H   0  0  0  0  0  0  0  0  0  0  0  0
   10.0217   48.5156   53.8659 H   0  0  0  0  0  0  0  0  0  0  0  0
   10.5088   45.4813   52.3475 H   0  0  0  0  0  0  0  0  0  0  0  0
    9.1680   45.5267   51.1529 H   0  0  0  0  0  0  0  0  0  0  0  0
   10.4152   46.8195   51.1529 H   0  0  0  0  0  0  0  0  0  0  0  0
    5.8452   44.7084   51.8876 H   0  0  0  0  0  0  0  0  0  0  0  0
    6.0940   43.9353   53.5034 H   0  0  0  0  0  0  0  0  0  0  0  0
    1.1711   44.1066   55.5493 H   0  0  0  0  0  0  0  0  0  0  0  0
    0.5442   45.6835   55.1040 H   0  0  0  0  0  0  0  0  0  0  0  0
   -0.9565   43.6865   56.3321 H   0  0  0  0  0  0  0  0  0  0  0  0
   -1.6815   44.9802   55.3186 H   0  0  0  0  0  0  0  0  0  0  0  0
    0.2034   42.0804   53.7466 H   0  0  0  0  0  0  0  0  0  0  0  0
   -0.8006   42.8245   52.4642 H   0  0  0  0  0  0  0  0  0  0  0  0
  1  2  1  0
  3  2  1  6
  3  4  1  0
  4  5  2  0
  5  6  1  0
  6  7  2  0
  7  8  1  0
  8  9  1  0
  9 10  1  0
 10 11  1  0
 11 12  1  0
 12 13  2  0
 12 14  1  0
 14 15  1  0
 15 16  1  0
 15 17  1  0
 15 18  1  0
 11 19  1  0
  3 20  1  0
 20 21  1  0
 21 22  1  0
 22 23  1  0
 23  3  1  0
  8  4  1  0
 19  7  1  0
  1 24  1  0
  1 25  1  0
  1 26  1  0
  9 27  1  0
  9 28  1  0
 10 29  1  0
 10 30  1  0
 16 31  1  0
 16 32  1  0
 16 33  1  0
 17 34  1  0
 17 35  1  0
 17 36  1  0
 18 37  1  0
 18 38  1  0
 18 39  1  0
 19 40  1  0
 19 41  1  0
 20 42  1  0
 20 43  1  0
 21 44  1  0
 21 45  1  0
 23 46  1  0
 23 47  1  0
M  END
>  <meeko>  (3) 
{"is_sidechain": [false], "free_energy": -7.583, "intermolecular_energy": -10.201, "internal_energy": -0.096}

$$$$
ligand_42_conformer_5_docked
     RDKit          3D

 47 49  0  0  0  0  0  0  0  0999 V2000
    1.9840   45.1650   55.3890 C   0  0  0  0  0  0  0  0  0  0  0  0
    1.3820   45.6750   54.2130 O   0  0  0  0  0  0  0  0  0  0  0  0
    1.0330   44.6620   53.2730 C   0  0  1  0  0  0  0  0  0  0  0  0
    2.2420   43.9110   52.7190 C   0  0  0  0  0  0  0  0  0  0  0  0
    2.3660   42.5650   52.7210 N   0  0  0  0  0  0  0  0  0  0  0  0
    3.5280   42.2730   52.1510 N   0  0  0  0  0  0  0  0  0  0  0  0
    4.0910   43.4460   51.8050 C   0  0  0  0  0  0  0  0  0  0  0  0
    3.3090   44.4840   52.1260 N   0  0  0  0  0  0  0  0  0  0  0  0
    3.6610   45.8880   51.9470 C   0  0  0  0  0  0  0  0  0  0  0  0
    4.6770   46.0240   50.8080 C   0  0  0  0  0  0  0  0  0  0  0  0
    5.7550   45.0230   50.9430 N   0  0  0  0  0  0  0  0  0  0  0  0
    7.1120   45.3670   50.6000 C   0  0  0  0  0  0  0  0  0  0  0  0
    7.8250   44.5560   49.9490 O   0  0  0  0  0  0  0  0  0  0  0  0
    7.6310   46.6110   50.9980 O   0  0  0  0  0  0  0  0  0  0  0  0
    8.3650   46.8840   52.2000 C   0  0  0  0  0  0  0  0  0  0  0  0
    7.7350   46.1520   53.4000 C   0  0  0  0  0  0  0  0  0  0  0  0
    9.8440   46.4860   52.0340 C   0  0  0  0  0  0  0  0  0  0  0  0
    8.2840   48.3990   52.4460 C   0  0  0  0  0  0  0  0  0  0  0  0
    5.4200   43.6000   51.1380 C   0  0  0  0  0  0  0  0  0  0  0  0
    0.0890   43.6960   53.9550 C   0  0  0  0  0  0  0  0  0  0  0  0
   -1.2740   44.3330   53.7560 C   0  0  0  0  0  0  0  0  0  0  0  0
   -1.2110   45.2580   52.6960 O   0  0  0  0  0  0  0  0  0  0  0  0
    0.1010   45.2240   52.1900 C   0  0  0  0  0  0  0  0  0  0  0  0
    1.4828   45.5896   56.2713 H   0  0  0  0  0  0  0  0  0  0  0  0
    1.8879   44.0693   55.4046 H   0  0  0  0  0  0  0  0  0  0  0  0
    3.0490   45.4399   55.4046 H   0  0  0  0  0  0  0  0  0  0  0  0
    2.7564   46.4634   51.7008 H   0  0  0  0  0  0  0  0  0  0  0  0
    4.1025   46.2746   52.8774 H   0  0  0  0  0  0  0  0  0  0  0  0
    4.1634   45.8733   49.8470 H   0  0  0  0  0  0  0  0  0  0  0  0
    5.1222   47.0290   50.8513 H   0  0  0  0  0  0  0  0  0  0  0  0
    8.1121   46.5901   54.3359 H   0  0  0  0  0  0  0  0  0  0  0  0
    6.6408   46.2575   53.3605 H   0  0  0  0  0  0  0  0  0  0  0  0
    8.0023   45.0857   53.3605 H   0  0  0  0  0  0  0  0  0  0  0  0
   10.3039   46.3622   53.0255 H   0  0  0  0  0  0  0  0  0  0  0  0
    9.9087   45.5385   51.4790 H   0  0  0  0  0  0  0  0  0  0  0  0
   10.3754   47.2731   51.4790 H   0  0  0  0  0  0  0  0  0  0  0  0
    8.2735   48.5947   53.5284 H   0  0  0  0  0  0  0  0  0  0  0  0
    9.1571   48.8913   51.9928 H   0  0  0  0  0  0  0  0  0  0  0  0
    7.3634   48.7953   51.9928 H   0  0  0  0  0  0  0  0  0  0  0  0
    5.3903   43.1005   50.1584 H   0  0  0  0  0  0  0  0  0  0  0  0
    6.1881   43.1454   51.7809 H   0  0  0  0  0  0  0  0  0  0  0  0
    0.1322   42.7039   53.4819 H   0  0  0  0  0  0  0  0  0  0  0  0
    0.3350   43.5324   55.0146 H   0  0  0  0  0  0  0  0  0  0  0  0
   -2.0119   43.5527   53.5180 H   0  0  0  0  0  0  0  0  0  0  0  0
   -1.5734   44.8527   54.6781 H   0  0  0  0  0  0  0  0  0  0  0  0
    0.1375   44.5792   51.2995 H   0  0  0  0  0  0  0  0  0  0  0  0
    0.4209   46.2387   51.9106 H   0  0  0  0  0  0  0  0  0  0  0  0
  1  2  1  0
  3  2  1  1
  3  4  1  0
  4  5  2  0
  5  6  1  0
  6  7  2  0
  7  8  1  0
  8  9  1  0
  9 10  1  0
 10 11  1  0
 11 12  1  0
 12 13  2  0
 12 14  1  0
 14 15  1  0
 15 16  1  0
 15 17  1  0
 15 18  1  0
 11 19  1  0
  3 20  1  0
 20 21  1  0
 21 22  1  0
 22 23  1  0
 23  3  1  0
  8  4  1  0
 19  7  1  0
  1 24  1  0
  1 25  1  0
  1 26  1  0
  9 27  1  0
  9 28  1  0
 10 29  1  0
 10 30  1  0
 16 31  1  0
 16 32  1  0
 16 33  1  0
 17 34  1  0
 17 35  1  0
 17 36  1  0
 18 37  1  0
 18 38  1  0
 18 39  1  0
 19 40  1  0
 19 41  1  0
 20 42  1  0
 20 43  1  0
 21 44  1  0
 21 45  1  0
 23 46  1  0
 23 47  1  0
M  END
>  <meeko>  (4) 
{"is_sidechain": [false], "free_energy": -7.378, "intermolecular_energy": -9.483, "internal_energy": -0.55}

$$$$
ligand_42_conformer_5_docked
     RDKit          3D

 47 49  0  0  0  0  0  0  0  0999 V2000
    0.2820   42.0360   53.7180 C   0  0  0  0  0  0  0  0  0  0  0  0
    0.4550   43.4400   53.6830 O   0  0  0  0  0  0  0  0  0  0  0  0
    0.8390   43.9300   52.4000 C   0  0  1  0  0  0  0  0  0  0  0  0
    2.3370   43.8060   52.1310 C   0  0  0  0  0  0  0  0  0  0  0  0
    2.8900   42.8670   51.3320 N   0  0  0  0  0  0  0  0  0  0  0  0
    4.2000   43.0740   51.3240 N   0  0  0  0  0  0  0  0  0  0  0  0
    4.4250   44.1410   52.1140 C   0  0  0  0  0  0  0  0  0  0  0  0
    3.2850   44.6330   52.6170 N   0  0  0  0  0  0  0  0  0  0  0  0
    3.1940   45.7400   53.5620 C   0  0  0  0  0  0  0  0  0  0  0  0
    4.4140   46.6540   53.4060 C   0  0  0  0  0  0  0  0  0  0  0  0
    5.6590   45.8610   53.3450 N   0  0  0  0  0  0  0  0  0  0  0  0
    6.8620   46.3490   53.9730 C   0  0  0  0  0  0  0  0  0  0  0  0
    6.7880   47.1130   54.9740 O   0  0  0  0  0  0  0  0  0  0  0  0
    8.1120   45.9650   53.4600 O   0  0  0  0  0  0  0  0  0  0  0  0
    9.1040   46.8330   52.8930 C   0  0  0  0  0  0  0  0  0  0  0  0
   10.0380   46.0490   51.9530 C   0  0  0  0  0  0  0  0  0  0  0  0
    8.4380   48.0050   52.1480 C   0  0  0  0  0  0  0  0  0  0  0  0
    9.9330   47.3950   54.0590 C   0  0  0  0  0  0  0  0  0  0  0  0
    5.7680   44.7290   52.4060 C   0  0  0  0  0  0  0  0  0  0  0  0
    0.0580   43.1640   51.3550 C   0  0  0  0  0  0  0  0  0  0  0  0
   -1.2430   43.9370   51.2460 C   0  0  0  0  0  0  0  0  0  0  0  0
   -1.0630   45.2340   51.7660 O   0  0  0  0  0  0  0  0  0  0  0  0
    0.2800   45.3410   52.1680 C   0  0  0  0  0  0  0  0  0  0  0  0
    0.2403   41.6977   54.7638 H   0  0  0  0  0  0  0  0  0  0  0  0
   -0.6558   41.7693   53.2087 H   0  0  0  0  0  0  0  0  0  0  0  0
    1.1270   41.5496   53.2087 H   0  0  0  0  0  0  0  0  0  0  0  0
    2.2780   46.3158   53.3635 H   0  0  0  0  0  0  0  0  0  0  0  0
    3.1655   45.3423   54.5872 H   0  0  0  0  0  0  0  0  0  0  0  0
    4.3118   47.2368   52.4787 H   0  0  0  0  0  0  0  0  0  0  0  0
    4.4655   47.3250   54.2761 H   0  0  0  0  0  0  0  0  0  0  0  0
   10.7454   45.4552   52.5505 H   0  0  0  0  0  0  0  0  0  0  0  0
    9.4405   45.3779   51.3185 H   0  0  0  0  0  0  0  0  0  0  0  0
   10.5954   46.7537   51.3185 H   0  0  0  0  0  0  0  0  0  0  0  0
    8.0316   48.7202   52.8783 H   0  0  0  0  0  0  0  0  0  0  0  0
    9.1842   48.5097   51.5168 H   0  0  0  0  0  0  0  0  0  0  0  0
    7.6225   47.6222   51.5168 H   0  0  0  0  0  0  0  0  0  0  0  0
    9.4796   47.0876   55.0129 H   0  0  0  0  0  0  0  0  0  0  0  0
   10.9603   47.0064   53.9993 H   0  0  0  0  0  0  0  0  0  0  0  0
    9.9524   48.4932   53.9993 H   0  0  0  0  0  0  0  0  0  0  0  0
    6.2170   45.0835   51.4665 H   0  0  0  0  0  0  0  0  0  0  0  0
    6.3969   43.9526   52.8661 H   0  0  0  0  0  0  0  0  0  0  0  0
    0.5919   43.1556   50.3933 H   0  0  0  0  0  0  0  0  0  0  0  0
   -0.0930   42.1078   51.6226 H   0  0  0  0  0  0  0  0  0  0  0  0
   -1.5426   44.0037   50.1897 H   0  0  0  0  0  0  0  0  0  0  0  0
   -2.0270   43.4182   51.8172 H   0  0  0  0  0  0  0  0  0  0  0  0
    0.8623   45.8452   51.3827 H   0  0  0  0  0  0  0  0  0  0  0  0
    0.3476   45.9278   53.0959 H   0  0  0  0  0  0  0  0  0  0  0  0
  1  2  1  0
  3  2  1  1
  3  4  1  0
  4  5  2  0
  5  6  1  0
  6  7  2  0
  7  8  1  0
  8  9  1  0
  9 10  1  0
 10 11  1  0
 11 12  1  0
 12 13  2  0
 12 14  1  0
 14 15  1  0
 15 16  1  0
 15 17  1  0
 15 18  1  0
 11 19  1  0
  3 20  1  0
 20 21  1  0
 21 22  1  0
 22 23  1  0
 23  3  1  0
  8  4  1  0
 19  7  1  0
  1 24  1  0
  1 25  1  0
  1 26  1  0
  9 27  1  0
  9 28  1  0
 10 29  1  0
 10 30  1  0
 16 31  1  0
 16 32  1  0
 16 33  1  0
 17 34  1  0
 17 35  1  0
 17 36  1  0
 18 37  1  0
 18 38  1  0
 18 39  1  0
 19 40  1  0
 19 41  1  0
 20 42  1  0
 20 43  1  0
 21 44  1  0
 21 45  1  0
 23 46  1  0
 23 47  1  0
M  END
>  <meeko>  (5) 
{"is_sidechain": [false], "free_energy": -7.277, "intermolecular_energy": -9.671, "internal_energy": -0.231}

$$$$
