ligand_65_conformer_2_docked
     RDKit          3D

 34 37  0  0  0  0  0  0  0  0999 V2000
    3.8450   45.3110   55.2000 C   0  0  0  0  0  0  0  0  0  0  0  0
    3.0400   46.0740   54.1380 C   0  0  1  0  0  0  0  0  0  0  0  0
    3.8820   47.0540   53.4360 N   0  0  0  0  0  0  0  0  0  0  0  0
    5.2690   46.8610   53.1020 C   0  0  0  0  0  0  0  0  0  0  0  0
    6.2690   47.2920   53.9320 N   0  0  0  0  0  0  0  0  0  0  0  0
    7.5920   47.1020   53.6330 C   0  0  0  0  0  0  0  0  0  0  0  0
    8.5920   47.5530   54.5020 C   0  0  0  0  0  0  0  0  0  0  0  0
    9.9390   47.3470   54.1780 C   0  0  0  0  0  0  0  0  0  0  0  0
   10.2900   46.6920   52.9900 C   0  0  0  0  0  0  0  0  0  0  0  0
    9.2980   46.2370   52.1140 C   0  0  0  0  0  0  0  0  0  0  0  0
    7.9490   46.4410   52.4340 C   0  0  0  0  0  0  0  0  0  0  0  0
    6.9350   46.0260   51.6340 N   0  0  0  0  0  0  0  0  0  0  0  0
    6.9820   45.3910   50.4790 N   0  0  0  0  0  0  0  0  0  0  0  0
    5.7290   45.1940   50.0770 N   0  0  0  0  0  0  0  0  0  0  0  0
    4.8680   45.6960   50.9620 N   0  0  0  0  0  0  0  0  0  0  0  0
    5.6490   46.2110   51.9280 C   0  0  0  0  0  0  0  0  0  0  0  0
    2.3390   45.1340   53.1810 C   0  0  0  0  0  0  0  0  0  0  0  0
    1.2710   45.5900   52.3930 C   0  0  0  0  0  0  0  0  0  0  0  0
    0.6540   44.7340   51.5360 N   0  0  0  0  0  0  0  0  0  0  0  0
    1.0530   43.4410   51.4230 C   0  0  0  0  0  0  0  0  0  0  0  0
    2.1180   42.9830   52.1970 C   0  0  0  0  0  0  0  0  0  0  0  0
    2.7360   43.8370   53.0530 N   0  0  0  0  0  0  0  0  0  0  0  0
    3.5166   45.6222   56.2027 H   0  0  0  0  0  0  0  0  0  0  0  0
    3.6796   44.2302   55.0790 H   0  0  0  0  0  0  0  0  0  0  0  0
    4.9154   45.5340   55.0790 H   0  0  0  0  0  0  0  0  0  0  0  0
    2.2508   46.6362   54.6587 H   0  0  0  0  0  0  0  0  0  0  0  0
    3.4360   47.9640   53.1790 H   0  0  0  0  0  0  0  0  0  0  0  0
    8.3212   48.0673   55.4359 H   0  0  0  0  0  0  0  0  0  0  0  0
   10.7259   47.7014   54.8601 H   0  0  0  0  0  0  0  0  0  0  0  0
   11.3507   46.5347   52.7447 H   0  0  0  0  0  0  0  0  0  0  0  0
    9.5750   45.7233   51.1816 H   0  0  0  0  0  0  0  0  0  0  0  0
    0.9349   46.6347   52.4685 H   0  0  0  0  0  0  0  0  0  0  0  0
    0.5403   42.7610   50.7268 H   0  0  0  0  0  0  0  0  0  0  0  0
    2.4548   41.9390   52.1151 H   0  0  0  0  0  0  0  0  0  0  0  0
  1  2  1  0
  2  3  1  0
  3  4  1  0
  4  5  2  0
  5  6  1  0
  6  7  2  0
  7  8  1  0
  8  9  2  0
  9 10  1  0
 10 11  2  0
 11 12  1  0
 12 13  1  0
 13 14  2  0
 14 15  1  0
 15 16  2  0
  2 17  1  0
 17 18  2  0
 18 19  1  0
 19 20  2  0
 20 21  1  0
 21 22  2  0
 16  4  1  0
 22 17  1  0
 11  6  1  0
 16 12  1  0
  1 23  1  0
  1 24  1  0
  1 25  1  0
  2 26  1  1
  3 27  1  0
  7 28  1  0
  8 29  1  0
  9 30  1  0
 10 31  1  0
 18 32  1  0
 20 33  1  0
 21 34  1  0
M  END
>  <meeko>  (1) 
{"is_sidechain": [false], "free_energy": -8.766, "intermolecular_energy": -10.303, "internal_energy": -0.48}

$$$$
ligand_65_conformer_2_docked
     RDKit          3D

 34 37  0  0  0  0  0  0  0  0999 V2000
    4.9690   45.4510   55.2070 C   0  0  0  0  0  0  0  0  0  0  0  0
    3.9680   46.4250   54.5690 C   0  0  1  0  0  0  0  0  0  0  0  0
    4.5410   47.0750   53.3800 N   0  0  0  0  0  0  0  0  0  0  0  0
    5.5030   46.4710   52.4950 C   0  0  0  0  0  0  0  0  0  0  0  0
    5.1970   45.3560   51.7620 N   0  0  0  0  0  0  0  0  0  0  0  0
    6.0980   44.7810   50.9060 C   0  0  0  0  0  0  0  0  0  0  0  0
    5.7560   43.6420   50.1690 C   0  0  0  0  0  0  0  0  0  0  0  0
    6.6910   43.0710   49.2970 C   0  0  0  0  0  0  0  0  0  0  0  0
    7.9680   43.6320   49.1610 C   0  0  0  0  0  0  0  0  0  0  0  0
    8.3210   44.7720   49.8930 C   0  0  0  0  0  0  0  0  0  0  0  0
    7.3880   45.3480   50.7660 C   0  0  0  0  0  0  0  0  0  0  0  0
    7.6590   46.4510   51.5060 N   0  0  0  0  0  0  0  0  0  0  0  0
    8.7620   47.1720   51.5660 N   0  0  0  0  0  0  0  0  0  0  0  0
    8.5490   48.1610   52.4300 N   0  0  0  0  0  0  0  0  0  0  0  0
    7.3170   48.0890   52.9320 N   0  0  0  0  0  0  0  0  0  0  0  0
    6.7810   47.0100   52.3360 C   0  0  0  0  0  0  0  0  0  0  0  0
    2.6440   45.7550   54.2710 C   0  0  0  0  0  0  0  0  0  0  0  0
    2.0400   44.9200   55.2240 C   0  0  0  0  0  0  0  0  0  0  0  0
    0.8490   44.3290   54.9420 N   0  0  0  0  0  0  0  0  0  0  0  0
    0.2260   44.5340   53.7520 C   0  0  0  0  0  0  0  0  0  0  0  0
    0.8150   45.3680   52.8040 C   0  0  0  0  0  0  0  0  0  0  0  0
    2.0050   45.9600   53.0850 N   0  0  0  0  0  0  0  0  0  0  0  0
    4.8992   45.5189   56.3027 H   0  0  0  0  0  0  0  0  0  0  0  0
    4.7361   44.4245   54.8877 H   0  0  0  0  0  0  0  0  0  0  0  0
    5.9888   45.7119   54.8877 H   0  0  0  0  0  0  0  0  0  0  0  0
    3.7604   47.2168   55.3039 H   0  0  0  0  0  0  0  0  0  0  0  0
    4.2350   48.0540   53.1810 H   0  0  0  0  0  0  0  0  0  0  0  0
    4.7558   43.1965   50.2742 H   0  0  0  0  0  0  0  0  0  0  0  0
    6.4216   42.1770   48.7154 H   0  0  0  0  0  0  0  0  0  0  0  0
    8.6966   43.1744   48.4757 H   0  0  0  0  0  0  0  0  0  0  0  0
    9.3231   45.2123   49.7838 H   0  0  0  0  0  0  0  0  0  0  0  0
    2.5281   44.7448   56.1941 H   0  0  0  0  0  0  0  0  0  0  0  0
   -0.7361   44.0452   53.5387 H   0  0  0  0  0  0  0  0  0  0  0  0
    0.3212   45.5454   51.8372 H   0  0  0  0  0  0  0  0  0  0  0  0
  1  2  1  0
  2  3  1  0
  3  4  1  0
  4  5  2  0
  5  6  1  0
  6  7  2  0
  7  8  1  0
  8  9  2  0
  9 10  1  0
 10 11  2  0
 11 12  1  0
 12 13  1  0
 13 14  2  0
 14 15  1  0
 15 16  2  0
  2 17  1  0
 17 18  2  0
 18 19  1  0
 19 20  2  0
 20 21  1  0
 21 22  2  0
 16  4  1  0
 22 17  1  0
 11  6  1  0
 16 12  1  0
  1 23  1  0
  1 24  1  0
  1 25  1  0
  2 26  1  1
  3 27  1  0
  7 28  1  0
  8 29  1  0
  9 30  1  0
 10 31  1  0
 18 32  1  0
 20 33  1  0
 21 34  1  0
M  END
>  <meeko>  (2) 
{"is_sidechain": [false], "free_energy": -8.681, "intermolecular_energy": -10.207, "internal_energy": -0.477}

$$$$
ligand_65_conformer_2_docked
     RDKit          3D

 34 37  0  0  0  0  0  0  0  0999 V2000
    3.7720   42.5570   51.1810 C   0  0  0  0  0  0  0  0  0  0  0  0
    3.3450   43.9000   51.7880 C   0  0  1  0  0  0  0  0  0  0  0  0
    4.1230   45.0120   51.2200 N   0  0  0  0  0  0  0  0  0  0  0  0
    5.2920   45.5940   51.8270 C   0  0  0  0  0  0  0  0  0  0  0  0
    6.5340   45.4450   51.2720 N   0  0  0  0  0  0  0  0  0  0  0  0
    7.6510   46.0040   51.8320 C   0  0  0  0  0  0  0  0  0  0  0  0
    8.9080   45.8360   51.2410 C   0  0  0  0  0  0  0  0  0  0  0  0
   10.0370   46.4180   51.8290 C   0  0  0  0  0  0  0  0  0  0  0  0
    9.9160   47.1690   53.0060 C   0  0  0  0  0  0  0  0  0  0  0  0
    8.6640   47.3450   53.6060 C   0  0  0  0  0  0  0  0  0  0  0  0
    7.5310   46.7640   53.0210 C   0  0  0  0  0  0  0  0  0  0  0  0
    6.2870   46.8930   53.5450 N   0  0  0  0  0  0  0  0  0  0  0  0
    5.8940   47.5390   54.6260 N   0  0  0  0  0  0  0  0  0  0  0  0
    4.5760   47.3840   54.7300 N   0  0  0  0  0  0  0  0  0  0  0  0
    4.1100   46.6430   53.7260 N   0  0  0  0  0  0  0  0  0  0  0  0
    5.2020   46.3490   52.9980 C   0  0  0  0  0  0  0  0  0  0  0  0
    1.8530   44.1250   51.6630 C   0  0  0  0  0  0  0  0  0  0  0  0
    1.2520   45.2460   52.2560 C   0  0  0  0  0  0  0  0  0  0  0  0
   -0.0880   45.4350   52.1320 N   0  0  0  0  0  0  0  0  0  0  0  0
   -0.8610   44.5600   51.4390 C   0  0  0  0  0  0  0  0  0  0  0  0
   -0.2700   43.4480   50.8400 C   0  0  0  0  0  0  0  0  0  0  0  0
    1.0690   43.2580   50.9630 N   0  0  0  0  0  0  0  0  0  0  0  0
    3.9983   41.8451   51.9884 H   0  0  0  0  0  0  0  0  0  0  0  0
    2.9560   42.1594   50.5597 H   0  0  0  0  0  0  0  0  0  0  0  0
    4.6678   42.7037   50.5597 H   0  0  0  0  0  0  0  0  0  0  0  0
    3.5672   43.8636   52.8647 H   0  0  0  0  0  0  0  0  0  0  0  0
    3.7850   45.4160   50.3180 H   0  0  0  0  0  0  0  0  0  0  0  0
    9.0087   45.2481   50.3167 H   0  0  0  0  0  0  0  0  0  0  0  0
   11.0252   46.2851   51.3645 H   0  0  0  0  0  0  0  0  0  0  0  0
   10.8093   47.6223   53.4604 H   0  0  0  0  0  0  0  0  0  0  0  0
    8.5701   47.9349   54.5297 H   0  0  0  0  0  0  0  0  0  0  0  0
    1.8624   45.9679   52.8183 H   0  0  0  0  0  0  0  0  0  0  0  0
   -1.9447   44.7269   51.3508 H   0  0  0  0  0  0  0  0  0  0  0  0
   -0.8827   42.7315   50.2732 H   0  0  0  0  0  0  0  0  0  0  0  0
  1  2  1  0
  2  3  1  0
  3  4  1  0
  4  5  2  0
  5  6  1  0
  6  7  2  0
  7  8  1  0
  8  9  2  0
  9 10  1  0
 10 11  2  0
 11 12  1  0
 12 13  1  0
 13 14  2  0
 14 15  1  0
 15 16  2  0
  2 17  1  0
 17 18  2  0
 18 19  1  0
 19 20  2  0
 20 21  1  0
 21 22  2  0
 16  4  1  0
 22 17  1  0
 11  6  1  0
 16 12  1  0
  1 23  1  0
  1 24  1  0
  1 25  1  0
  2 26  1  1
  3 27  1  0
  7 28  1  0
  8 29  1  0
  9 30  1  0
 10 31  1  0
 18 32  1  0
 20 33  1  0
 21 34  1  0
M  END
>  <meeko>  (3) 
{"is_sidechain": [false], "free_energy": -8.42, "intermolecular_energy": -9.972, "internal_energy": -0.405}

$$$$
ligand_65_conformer_2_docked
     RDKit          3D

 34 37  0  0  0  0  0  0  0  0999 V2000
    3.7110   41.9270   51.0500 C   0  0  0  0  0  0  0  0  0  0  0  0
    3.9450   43.2850   51.7260 C   0  0  1  0  0  0  0  0  0  0  0  0
    4.6590   44.2080   50.8300 N   0  0  0  0  0  0  0  0  0  0  0  0
    5.9660   44.7570   51.0840 C   0  0  0  0  0  0  0  0  0  0  0  0
    6.1920   45.6060   52.1340 N   0  0  0  0  0  0  0  0  0  0  0  0
    7.4330   46.1240   52.3940 C   0  0  0  0  0  0  0  0  0  0  0  0
    7.6330   46.9880   53.4760 C   0  0  0  0  0  0  0  0  0  0  0  0
    8.9100   47.5050   53.7260 C   0  0  0  0  0  0  0  0  0  0  0  0
    9.9880   47.1620   52.8990 C   0  0  0  0  0  0  0  0  0  0  0  0
    9.7990   46.2970   51.8140 C   0  0  0  0  0  0  0  0  0  0  0  0
    8.5230   45.7770   51.5600 C   0  0  0  0  0  0  0  0  0  0  0  0
    8.2660   44.9340   50.5300 N   0  0  0  0  0  0  0  0  0  0  0  0
    9.0850   44.4520   49.6150 N   0  0  0  0  0  0  0  0  0  0  0  0
    8.3730   43.6610   48.8160 N   0  0  0  0  0  0  0  0  0  0  0  0
    7.0990   43.6250   49.2030 N   0  0  0  0  0  0  0  0  0  0  0  0
    7.0590   44.4310   50.2790 C   0  0  0  0  0  0  0  0  0  0  0  0
    2.6580   43.8820   52.2510 C   0  0  0  0  0  0  0  0  0  0  0  0
    2.2980   45.1970   51.9200 C   0  0  0  0  0  0  0  0  0  0  0  0
    1.1360   45.7180   52.3980 N   0  0  0  0  0  0  0  0  0  0  0  0
    0.3110   44.9860   53.1910 C   0  0  0  0  0  0  0  0  0  0  0  0
    0.6580   43.6760   53.5180 C   0  0  0  0  0  0  0  0  0  0  0  0
    1.8180   43.1550   53.0410 N   0  0  0  0  0  0  0  0  0  0  0  0
    3.5775   41.1525   51.8196 H   0  0  0  0  0  0  0  0  0  0  0  0
    2.8088   41.9802   50.4230 H   0  0  0  0  0  0  0  0  0  0  0  0
    4.5790   41.6751   50.4230 H   0  0  0  0  0  0  0  0  0  0  0  0
    4.5899   43.1141   52.6006 H   0  0  0  0  0  0  0  0  0  0  0  0
    4.1670   44.4960   49.9550 H   0  0  0  0  0  0  0  0  0  0  0  0
    6.7900   47.2602   54.1281 H   0  0  0  0  0  0  0  0  0  0  0  0
    9.0679   48.1844   54.5766 H   0  0  0  0  0  0  0  0  0  0  0  0
   10.9873   47.5741   53.1030 H   0  0  0  0  0  0  0  0  0  0  0  0
   10.6461   46.0278   51.1659 H   0  0  0  0  0  0  0  0  0  0  0  0
    2.9524   45.8038   51.2769 H   0  0  0  0  0  0  0  0  0  0  0  0
   -0.6235   45.4235   53.5721 H   0  0  0  0  0  0  0  0  0  0  0  0
   -0.0016   43.0699   54.1564 H   0  0  0  0  0  0  0  0  0  0  0  0
  1  2  1  0
  2  3  1  0
  3  4  1  0
  4  5  2  0
  5  6  1  0
  6  7  2  0
  7  8  1  0
  8  9  2  0
  9 10  1  0
 10 11  2  0
 11 12  1  0
 12 13  1  0
 13 14  2  0
 14 15  1  0
 15 16  2  0
  2 17  1  0
 17 18  2  0
 18 19  1  0
 19 20  2  0
 20 21  1  0
 21 22  2  0
 16  4  1  0
 22 17  1  0
 11  6  1  0
 16 12  1  0
  1 23  1  0
  1 24  1  0
  1 25  1  0
  2 26  1  1
  3 27  1  0
  7 28  1  0
  8 29  1  0
  9 30  1  0
 10 31  1  0
 18 32  1  0
 20 33  1  0
 21 34  1  0
M  END
>  <meeko>  (4) 
{"is_sidechain": [false], "free_energy": -8.36, "intermolecular_energy": -9.838, "internal_energy": -0.467}

$$$$
ligand_65_conformer_2_docked
     RDKit          3D

 34 37  0  0  0  0  0  0  0  0999 V2000
    1.0030   45.2900   56.0340 C   0  0  0  0  0  0  0  0  0  0  0  0
    1.5180   45.1010   54.6000 C   0  0  1  0  0  0  0  0  0  0  0  0
    2.8160   44.4100   54.5870 N   0  0  0  0  0  0  0  0  0  0  0  0
    3.9200   44.7460   53.7250 C   0  0  0  0  0  0  0  0  0  0  0  0
    4.2490   43.9640   52.6500 N   0  0  0  0  0  0  0  0  0  0  0  0
    5.2870   44.2800   51.8150 C   0  0  0  0  0  0  0  0  0  0  0  0
    5.6000   43.4630   50.7240 C   0  0  0  0  0  0  0  0  0  0  0  0
    6.6640   43.8050   49.8810 C   0  0  0  0  0  0  0  0  0  0  0  0
    7.4190   44.9600   50.1250 C   0  0  0  0  0  0  0  0  0  0  0  0
    7.1150   45.7850   51.2140 C   0  0  0  0  0  0  0  0  0  0  0  0
    6.0500   45.4470   52.0600 C   0  0  0  0  0  0  0  0  0  0  0  0
    5.6980   46.1990   53.1320 N   0  0  0  0  0  0  0  0  0  0  0  0
    6.2280   47.3200   53.5820 N   0  0  0  0  0  0  0  0  0  0  0  0
    5.5380   47.6860   54.6590 N   0  0  0  0  0  0  0  0  0  0  0  0
    4.5650   46.8120   54.9140 N   0  0  0  0  0  0  0  0  0  0  0  0
    4.6870   45.8910   53.9420 C   0  0  0  0  0  0  0  0  0  0  0  0
    0.4960   44.4130   53.7210 C   0  0  0  0  0  0  0  0  0  0  0  0
   -0.4790   43.5770   54.2870 C   0  0  0  0  0  0  0  0  0  0  0  0
   -1.3920   42.9680   53.4840 N   0  0  0  0  0  0  0  0  0  0  0  0
   -1.3830   43.1570   52.1390 C   0  0  0  0  0  0  0  0  0  0  0  0
   -0.4220   43.9920   51.5710 C   0  0  0  0  0  0  0  0  0  0  0  0
    0.4900   44.6010   52.3720 N   0  0  0  0  0  0  0  0  0  0  0  0
    1.7893   45.0014   56.7470 H   0  0  0  0  0  0  0  0  0  0  0  0
    0.7348   46.3452   56.1912 H   0  0  0  0  0  0  0  0  0  0  0  0
    0.1159   44.6588   56.1912 H   0  0  0  0  0  0  0  0  0  0  0  0
    1.6778   46.1009   54.1703 H   0  0  0  0  0  0  0  0  0  0  0  0
    2.9310   43.6050   55.2430 H   0  0  0  0  0  0  0  0  0  0  0  0
    5.0118   42.5542   50.5288 H   0  0  0  0  0  0  0  0  0  0  0  0
    6.9089   43.1632   49.0219 H   0  0  0  0  0  0  0  0  0  0  0  0
    8.2542   45.2194   49.4578 H   0  0  0  0  0  0  0  0  0  0  0  0
    7.7076   46.6920   51.4045 H   0  0  0  0  0  0  0  0  0  0  0  0
   -0.5045   43.4152   55.3747 H   0  0  0  0  0  0  0  0  0  0  0  0
   -2.1276   42.6555   51.5034 H   0  0  0  0  0  0  0  0  0  0  0  0
   -0.4026   44.1561   50.4835 H   0  0  0  0  0  0  0  0  0  0  0  0
  1  2  1  0
  2  3  1  0
  3  4  1  0
  4  5  2  0
  5  6  1  0
  6  7  2  0
  7  8  1  0
  8  9  2  0
  9 10  1  0
 10 11  2  0
 11 12  1  0
 12 13  1  0
 13 14  2  0
 14 15  1  0
 15 16  2  0
  2 17  1  0
 17 18  2  0
 18 19  1  0
 19 20  2  0
 20 21  1  0
 21 22  2  0
 16  4  1  0
 22 17  1  0
 11  6  1  0
 16 12  1  0
  1 23  1  0
  1 24  1  0
  1 25  1  0
  2 26  1  6
  3 27  1  0
  7 28  1  0
  8 29  1  0
  9 30  1  0
 10 31  1  0
 18 32  1  0
 20 33  1  0
 21 34  1  0
M  END
>  <meeko>  (5) 
{"is_sidechain": [false], "free_energy": -8.194, "intermolecular_energy": -9.622, "internal_energy": -0.488}

$$$$
