MODEL 1
REMARK VINA RESULT:    -9.373      0.000      0.000
REMARK INTER + INTRA:         -11.791
REMARK INTER:                 -11.564
REMARK INTRA:                  -0.226
REMARK UNBOUND:                -0.226
REMARK SMILES O=C(c1ccc2cc(-c3ccccc3)[nH]c2c1)N1CC(NC2CCOCC2)C1
REMARK SMILES IDX 1 1 2 2 18 3 19 4 20 5 28 6 3 7 4 8 17 9 5 10 16 11 6 12
REMARK SMILES IDX 15 13 7 14 8 15 9 17 10 18 14 19 11 20 13 21 12 22 21 23
REMARK SMILES IDX 22 25 23 26 27 27 24 28 26 29 25 30
REMARK H PARENT 15 16 21 24
ROOT
ATOM      1  O   UNL     1      -0.506  43.221  53.092  1.00  0.00    -0.269 OA
ATOM      2  C   UNL     1       0.375  43.815  53.771  1.00  0.00     0.254 C 
ATOM      3  N   UNL     1       0.003  44.402  55.021  1.00  0.00    -0.335 N 
ATOM      4  C   UNL     1       0.562  45.332  56.024  1.00  0.00     0.140 C 
ATOM      5  C   UNL     1      -0.694  45.458  56.838  1.00  0.00     0.093 C 
ATOM      6  C   UNL     1      -1.236  44.508  55.814  1.00  0.00     0.140 C 
ENDROOT
BRANCH   2   7
ATOM      7  C   UNL     1       1.748  43.931  53.238  1.00  0.00     0.042 A 
ATOM      8  C   UNL     1       2.164  43.089  52.173  1.00  0.00     0.014 A 
ATOM      9  C   UNL     1       2.667  44.849  53.796  1.00  0.00     0.040 A 
ATOM     10  C   UNL     1       3.466  43.177  51.649  1.00  0.00     0.011 A 
ATOM     11  C   UNL     1       3.951  44.907  53.257  1.00  0.00     0.047 A 
ATOM     12  C   UNL     1       4.333  44.104  52.218  1.00  0.00     0.000 A 
ATOM     13  N   UNL     1       4.962  45.700  53.647  1.00  0.00    -0.355 N 
ATOM     14  C   UNL     1       5.647  44.399  51.927  1.00  0.00     0.037 A 
ATOM     15  C   UNL     1       6.007  45.397  52.836  1.00  0.00     0.046 A 
ATOM     16  H   UNL     1       4.927  46.415  54.408  1.00  0.00     0.167 HD
BRANCH  15  17
ATOM     17  C   UNL     1       7.343  46.042  52.922  1.00  0.00    -0.002 A 
ATOM     18  C   UNL     1       7.786  46.612  54.131  1.00  0.00     0.010 A 
ATOM     19  C   UNL     1       8.190  46.091  51.798  1.00  0.00     0.010 A 
ATOM     20  C   UNL     1       9.045  47.217  54.210  1.00  0.00     0.001 A 
ATOM     21  C   UNL     1       9.447  46.697  51.884  1.00  0.00     0.001 A 
ATOM     22  C   UNL     1       9.874  47.259  53.088  1.00  0.00     0.000 A 
ENDBRANCH  15  17
ENDBRANCH   2   7
BRANCH   5  23
ATOM     23  N   UNL     1      -1.332  46.786  56.773  1.00  0.00    -0.308 NA
ATOM     24  H   UNL     1      -0.741  47.429  56.192  1.00  0.00     0.123 HD
BRANCH  23  25
ATOM     25  C   UNL     1      -1.503  47.368  58.118  1.00  0.00     0.058 C 
ATOM     26  C   UNL     1      -0.133  47.594  58.779  1.00  0.00     0.047 C 
ATOM     27  C   UNL     1      -2.268  48.710  58.038  1.00  0.00     0.047 C 
ATOM     28  C   UNL     1      -0.284  48.290  60.153  1.00  0.00     0.161 C 
ATOM     29  C   UNL     1      -1.942  49.627  59.230  1.00  0.00     0.161 C 
ATOM     30  O   UNL     1      -1.565  48.864  60.357  1.00  0.00    -0.381 OA
ENDBRANCH  23  25
ENDBRANCH   5  23
TORSDOF 4
ENDMDL
MODEL 2
REMARK VINA RESULT:    -8.905      2.044      2.789
REMARK INTER + INTRA:         -11.213
REMARK INTER:                 -10.519
REMARK INTRA:                  -0.694
REMARK UNBOUND:                -0.226
REMARK SMILES O=C(c1ccc2cc(-c3ccccc3)[nH]c2c1)N1CC(NC2CCOCC2)C1
REMARK SMILES IDX 1 1 2 2 18 3 19 4 20 5 28 6 3 7 4 8 17 9 5 10 16 11 6 12
REMARK SMILES IDX 15 13 7 14 8 15 9 17 10 18 14 19 11 20 13 21 12 22 21 23
REMARK SMILES IDX 22 25 23 26 27 27 24 28 26 29 25 30
REMARK H PARENT 15 16 21 24
ROOT
ATOM      1  O   UNL     1       1.022  42.431  51.425  1.00  0.00    -0.269 OA
ATOM      2  C   UNL     1       1.225  43.331  52.284  1.00  0.00     0.254 C 
ATOM      3  N   UNL     1       0.308  43.465  53.373  1.00  0.00    -0.335 N 
ATOM      4  C   UNL     1      -0.009  44.425  54.450  1.00  0.00     0.140 C 
ATOM      5  C   UNL     1      -1.263  43.738  54.909  1.00  0.00     0.093 C 
ATOM      6  C   UNL     1      -0.916  42.772  53.819  1.00  0.00     0.140 C 
ENDROOT
BRANCH   2   7
ATOM      7  C   UNL     1       2.369  44.251  52.117  1.00  0.00     0.042 A 
ATOM      8  C   UNL     1       2.305  45.286  51.146  1.00  0.00     0.014 A 
ATOM      9  C   UNL     1       3.542  44.097  52.890  1.00  0.00     0.040 A 
ATOM     10  C   UNL     1       3.381  46.173  50.965  1.00  0.00     0.011 A 
ATOM     11  C   UNL     1       4.592  44.989  52.682  1.00  0.00     0.047 A 
ATOM     12  C   UNL     1       4.510  45.994  51.757  1.00  0.00     0.000 A 
ATOM     13  N   UNL     1       5.781  45.007  53.305  1.00  0.00    -0.355 N 
ATOM     14  C   UNL     1       5.699  46.688  51.793  1.00  0.00     0.037 A 
ATOM     15  C   UNL     1       6.468  46.047  52.768  1.00  0.00     0.046 A 
ATOM     16  H   UNL     1       6.089  44.358  54.063  1.00  0.00     0.167 HD
BRANCH  15  17
ATOM     17  C   UNL     1       7.847  46.430  53.167  1.00  0.00    -0.002 A 
ATOM     18  C   UNL     1       8.938  46.162  52.319  1.00  0.00     0.010 A 
ATOM     19  C   UNL     1       8.085  47.071  54.398  1.00  0.00     0.010 A 
ATOM     20  C   UNL     1      10.235  46.525  52.696  1.00  0.00     0.001 A 
ATOM     21  C   UNL     1       9.384  47.432  54.770  1.00  0.00     0.001 A 
ATOM     22  C   UNL     1      10.458  47.159  53.920  1.00  0.00     0.000 A 
ENDBRANCH  15  17
ENDBRANCH   2   7
BRANCH   5  23
ATOM     23  N   UNL     1      -2.505  44.484  54.633  1.00  0.00    -0.308 NA
ATOM     24  H   UNL     1      -2.274  45.357  54.099  1.00  0.00     0.123 HD
BRANCH  23  25
ATOM     25  C   UNL     1      -3.204  44.848  55.880  1.00  0.00     0.058 C 
ATOM     26  C   UNL     1      -3.071  43.716  56.914  1.00  0.00     0.047 C 
ATOM     27  C   UNL     1      -2.626  46.157  56.467  1.00  0.00     0.047 C 
ATOM     28  C   UNL     1      -3.718  44.114  58.263  1.00  0.00     0.161 C 
ATOM     29  C   UNL     1      -2.842  46.246  57.989  1.00  0.00     0.161 C 
ATOM     30  O   UNL     1      -3.979  45.504  58.375  1.00  0.00    -0.381 OA
ENDBRANCH  23  25
ENDBRANCH   5  23
TORSDOF 4
ENDMDL
MODEL 3
REMARK VINA RESULT:    -8.739      3.882      6.780
REMARK INTER + INTRA:         -11.008
REMARK INTER:                 -10.342
REMARK INTRA:                  -0.667
REMARK UNBOUND:                -0.226
REMARK SMILES O=C(c1ccc2cc(-c3ccccc3)[nH]c2c1)N1CC(NC2CCOCC2)C1
REMARK SMILES IDX 1 1 2 2 18 3 19 4 20 5 28 6 3 7 4 8 17 9 5 10 16 11 6 12
REMARK SMILES IDX 15 13 7 14 8 15 9 17 10 18 14 19 11 20 13 21 12 22 21 23
REMARK SMILES IDX 22 25 23 26 27 27 24 28 26 29 25 30
REMARK H PARENT 15 16 21 24
ROOT
ATOM      1  O   UNL     1       0.246  41.690  53.845  1.00  0.00    -0.269 OA
ATOM      2  C   UNL     1       0.413  42.802  53.276  1.00  0.00     0.254 C 
ATOM      3  N   UNL     1      -0.475  43.178  52.220  1.00  0.00    -0.335 N 
ATOM      4  C   UNL     1      -0.572  44.200  51.158  1.00  0.00     0.140 C 
ATOM      5  C   UNL     1      -1.758  43.594  50.465  1.00  0.00     0.093 C 
ATOM      6  C   UNL     1      -1.646  42.575  51.556  1.00  0.00     0.140 C 
ENDROOT
BRANCH   2   7
ATOM      7  C   UNL     1       1.545  43.662  53.679  1.00  0.00     0.042 A 
ATOM      8  C   UNL     1       1.447  44.450  54.856  1.00  0.00     0.014 A 
ATOM      9  C   UNL     1       2.716  43.735  52.891  1.00  0.00     0.040 A 
ATOM     10  C   UNL     1       2.509  45.279  55.260  1.00  0.00     0.011 A 
ATOM     11  C   UNL     1       3.747  44.570  53.317  1.00  0.00     0.047 A 
ATOM     12  C   UNL     1       3.648  45.310  54.463  1.00  0.00     0.000 A 
ATOM     13  N   UNL     1       4.927  44.782  52.711  1.00  0.00    -0.355 N 
ATOM     14  C   UNL     1       4.818  46.024  54.599  1.00  0.00     0.037 A 
ATOM     15  C   UNL     1       5.593  45.671  53.490  1.00  0.00     0.046 A 
ATOM     16  H   UNL     1       5.257  44.328  51.830  1.00  0.00     0.167 HD
BRANCH  15  17
ATOM     17  C   UNL     1       6.951  46.192  53.188  1.00  0.00    -0.002 A 
ATOM     18  C   UNL     1       7.452  46.163  51.872  1.00  0.00     0.010 A 
ATOM     19  C   UNL     1       7.759  46.726  54.210  1.00  0.00     0.010 A 
ATOM     20  C   UNL     1       8.730  46.656  51.589  1.00  0.00     0.001 A 
ATOM     21  C   UNL     1       9.036  47.216  53.921  1.00  0.00     0.001 A 
ATOM     22  C   UNL     1       9.521  47.181  52.612  1.00  0.00     0.000 A 
ENDBRANCH  15  17
ENDBRANCH   2   7
BRANCH   5  23
ATOM     23  N   UNL     1      -1.465  43.032  49.132  1.00  0.00    -0.308 NA
ATOM     24  H   UNL     1      -0.530  43.377  48.807  1.00  0.00     0.123 HD
BRANCH  23  25
ATOM     25  C   UNL     1      -2.494  43.417  48.147  1.00  0.00     0.058 C 
ATOM     26  C   UNL     1      -2.836  44.910  48.290  1.00  0.00     0.047 C 
ATOM     27  C   UNL     1      -2.004  43.133  46.708  1.00  0.00     0.047 C 
ATOM     28  C   UNL     1      -3.845  45.358  47.205  1.00  0.00     0.161 C 
ATOM     29  C   UNL     1      -2.700  44.039  45.676  1.00  0.00     0.161 C 
ATOM     30  O   UNL     1      -3.976  44.431  46.139  1.00  0.00    -0.381 OA
ENDBRANCH  23  25
ENDBRANCH   5  23
TORSDOF 4
ENDMDL
MODEL 4
REMARK VINA RESULT:    -8.697      3.317      8.624
REMARK INTER + INTRA:         -10.957
REMARK INTER:                 -11.759
REMARK INTRA:                   0.802
REMARK UNBOUND:                -0.226
REMARK SMILES O=C(c1ccc2cc(-c3ccccc3)[nH]c2c1)N1CC(NC2CCOCC2)C1
REMARK SMILES IDX 1 1 2 2 18 3 19 4 20 5 28 6 3 7 4 8 17 9 5 10 16 11 6 12
REMARK SMILES IDX 15 13 7 14 8 15 9 17 10 18 14 19 11 20 13 21 12 22 21 23
REMARK SMILES IDX 22 25 23 26 27 27 24 28 26 29 25 30
REMARK H PARENT 15 16 21 24
ROOT
ATOM      1  O   UNL     1       6.174  41.696  49.886  1.00  0.00    -0.269 OA
ATOM      2  C   UNL     1       5.764  42.799  50.340  1.00  0.00     0.254 C 
ATOM      3  N   UNL     1       6.620  43.942  50.254  1.00  0.00    -0.335 N 
ATOM      4  C   UNL     1       6.701  45.315  50.793  1.00  0.00     0.140 C 
ATOM      5  C   UNL     1       8.078  45.608  50.270  1.00  0.00     0.093 C 
ATOM      6  C   UNL     1       7.969  44.217  49.725  1.00  0.00     0.140 C 
ENDROOT
BRANCH   2   7
ATOM      7  C   UNL     1       4.439  42.871  50.988  1.00  0.00     0.042 A 
ATOM      8  C   UNL     1       3.328  42.214  50.395  1.00  0.00     0.014 A 
ATOM      9  C   UNL     1       4.253  43.612  52.178  1.00  0.00     0.040 A 
ATOM     10  C   UNL     1       2.055  42.270  50.990  1.00  0.00     0.011 A 
ATOM     11  C   UNL     1       2.978  43.651  52.739  1.00  0.00     0.047 A 
ATOM     12  C   UNL     1       1.920  42.998  52.168  1.00  0.00     0.000 A 
ATOM     13  N   UNL     1       2.598  44.298  53.852  1.00  0.00    -0.355 N 
ATOM     14  C   UNL     1       0.813  43.234  52.954  1.00  0.00     0.037 A 
ATOM     15  C   UNL     1       1.271  44.048  53.994  1.00  0.00     0.046 A 
ATOM     16  H   UNL     1       3.215  44.858  54.481  1.00  0.00     0.167 HD
BRANCH  15  17
ATOM     17  C   UNL     1       0.437  44.580  55.102  1.00  0.00    -0.002 A 
ATOM     18  C   UNL     1      -0.943  44.302  55.157  1.00  0.00     0.010 A 
ATOM     19  C   UNL     1       1.011  45.367  56.119  1.00  0.00     0.010 A 
ATOM     20  C   UNL     1      -1.726  44.801  56.202  1.00  0.00     0.001 A 
ATOM     21  C   UNL     1       0.222  45.864  57.161  1.00  0.00     0.001 A 
ATOM     22  C   UNL     1      -1.144  45.582  57.203  1.00  0.00     0.000 A 
ENDBRANCH  15  17
ENDBRANCH   2   7
BRANCH   5  23
ATOM     23  N   UNL     1       9.114  45.729  51.313  1.00  0.00    -0.308 NA
ATOM     24  H   UNL     1       9.305  44.784  51.725  1.00  0.00     0.123 HD
BRANCH  23  25
ATOM     25  C   UNL     1       8.694  46.651  52.385  1.00  0.00     0.058 C 
ATOM     26  C   UNL     1       7.727  45.942  53.349  1.00  0.00     0.047 C 
ATOM     27  C   UNL     1       9.921  47.170  53.171  1.00  0.00     0.047 C 
ATOM     28  C   UNL     1       7.346  46.861  54.534  1.00  0.00     0.161 C 
ATOM     29  C   UNL     1       9.549  47.590  54.604  1.00  0.00     0.161 C 
ATOM     30  O   UNL     1       8.196  47.989  54.669  1.00  0.00    -0.381 OA
ENDBRANCH  23  25
ENDBRANCH   5  23
TORSDOF 4
ENDMDL
MODEL 5
REMARK VINA RESULT:    -8.380      6.352     11.128
REMARK INTER + INTRA:         -10.566
REMARK INTER:                 -10.182
REMARK INTRA:                  -0.384
REMARK UNBOUND:                -0.226
REMARK SMILES O=C(c1ccc2cc(-c3ccccc3)[nH]c2c1)N1CC(NC2CCOCC2)C1
REMARK SMILES IDX 1 1 2 2 18 3 19 4 20 5 28 6 3 7 4 8 17 9 5 10 16 11 6 12
REMARK SMILES IDX 15 13 7 14 8 15 9 17 10 18 14 19 11 20 13 21 12 22 21 23
REMARK SMILES IDX 22 25 23 26 27 27 24 28 26 29 25 30
REMARK H PARENT 15 16 21 24
ROOT
ATOM      1  O   UNL     1       3.133  39.289  49.304  1.00  0.00    -0.269 OA
ATOM      2  C   UNL     1       3.538  40.398  48.861  1.00  0.00     0.254 C 
ATOM      3  N   UNL     1       3.747  40.544  47.454  1.00  0.00    -0.335 N 
ATOM      4  C   UNL     1       4.377  41.496  46.515  1.00  0.00     0.140 C 
ATOM      5  C   UNL     1       4.242  40.627  45.298  1.00  0.00     0.093 C 
ATOM      6  C   UNL     1       3.598  39.683  46.266  1.00  0.00     0.140 C 
ENDROOT
BRANCH   2   7
ATOM      7  C   UNL     1       3.832  41.495  49.806  1.00  0.00     0.042 A 
ATOM      8  C   UNL     1       2.835  41.918  50.725  1.00  0.00     0.014 A 
ATOM      9  C   UNL     1       5.083  42.152  49.788  1.00  0.00     0.040 A 
ATOM     10  C   UNL     1       3.087  42.962  51.633  1.00  0.00     0.011 A 
ATOM     11  C   UNL     1       5.299  43.185  50.698  1.00  0.00     0.047 A 
ATOM     12  C   UNL     1       4.337  43.571  51.591  1.00  0.00     0.000 A 
ATOM     13  N   UNL     1       6.407  43.931  50.835  1.00  0.00    -0.355 N 
ATOM     14  C   UNL     1       4.855  44.607  52.336  1.00  0.00     0.037 A 
ATOM     15  C   UNL     1       6.146  44.806  51.839  1.00  0.00     0.046 A 
ATOM     16  H   UNL     1       7.290  43.830  50.286  1.00  0.00     0.167 HD
BRANCH  15  17
ATOM     17  C   UNL     1       7.107  45.830  52.323  1.00  0.00    -0.002 A 
ATOM     18  C   UNL     1       7.192  46.141  53.694  1.00  0.00     0.010 A 
ATOM     19  C   UNL     1       7.952  46.505  51.421  1.00  0.00     0.010 A 
ATOM     20  C   UNL     1       8.098  47.104  54.148  1.00  0.00     0.001 A 
ATOM     21  C   UNL     1       8.856  47.467  51.881  1.00  0.00     0.001 A 
ATOM     22  C   UNL     1       8.929  47.767  53.242  1.00  0.00     0.000 A 
ENDBRANCH  15  17
ENDBRANCH   2   7
BRANCH   5  23
ATOM     23  N   UNL     1       5.520  40.114  44.769  1.00  0.00    -0.308 NA
ATOM     24  H   UNL     1       6.287  40.792  44.994  1.00  0.00     0.123 HD
BRANCH  23  25
ATOM     25  C   UNL     1       5.458  39.918  43.308  1.00  0.00     0.058 C 
ATOM     26  C   UNL     1       6.399  38.777  42.883  1.00  0.00     0.047 C 
ATOM     27  C   UNL     1       4.014  39.592  42.861  1.00  0.00     0.047 C 
ATOM     28  C   UNL     1       6.281  38.491  41.366  1.00  0.00     0.161 C 
ATOM     29  C   UNL     1       3.986  38.794  41.545  1.00  0.00     0.161 C 
ATOM     30  O   UNL     1       5.133  39.074  40.770  1.00  0.00    -0.381 OA
ENDBRANCH  23  25
ENDBRANCH   5  23
TORSDOF 4
ENDMDL
