ligand_67_conformer_4_docked
     RDKit          3D

 59 61  0  0  0  0  0  0  0  0999 V2000
    6.8020   44.8660   50.7110 C   0  0  0  0  0  0  0  0  0  0  0  0
    6.3140   46.1540   51.3750 C   0  0  0  0  0  0  0  0  0  0  0  0
    6.8370   46.2510   52.7600 N   0  0  0  0  0  0  0  0  0  0  0  0
    7.4960   47.5610   53.0710 C   0  0  0  0  0  0  0  0  0  0  0  0
    8.3770   48.0980   51.9080 C   0  0  0  0  0  0  0  0  0  0  0  0
    9.4290   47.0620   51.4620 C   0  0  0  0  0  0  0  0  0  0  0  0
    9.8840   46.1300   52.6040 C   0  0  0  0  0  0  0  0  0  0  0  0
    9.8320   46.8190   53.9770 C   0  0  0  0  0  0  0  0  0  0  0  0
    8.4560   47.4590   54.2960 C   0  0  0  0  0  0  0  0  0  0  0  0
    5.5330   45.8810   53.8970 S   0  0  0  0  0  0  0  0  0  0  0  0
    5.4050   46.9390   54.9600 O   0  0  0  0  0  0  0  0  0  0  0  0
    5.7770   44.5670   54.5880 O   0  0  0  0  0  0  0  0  0  0  0  0
    3.9780   45.8050   53.0130 C   0  0  0  0  0  0  0  0  0  0  0  0
    3.0480   44.7560   53.6240 C   0  0  0  0  0  0  0  0  0  0  0  0
    3.4280   43.4200   53.1690 N   0  0  0  0  0  0  0  0  0  0  0  0
    3.7020   43.1240   51.7930 C   0  0  0  0  0  0  0  0  0  0  0  0
    3.4590   43.9860   50.9040 O   0  0  0  0  0  0  0  0  0  0  0  0
    4.2900   41.8650   51.4430 N   0  0  0  0  0  0  0  0  0  0  0  0
    4.5020   41.4390   50.0920 C   0  0  0  0  0  0  0  0  0  0  0  0
    5.6370   41.6540   49.3290 C   0  0  0  0  0  0  0  0  0  0  0  0
    5.3400   41.0630   48.1170 C   0  0  0  0  0  0  0  0  0  0  0  0
    4.0920   40.5490   48.1780 N   0  0  0  0  0  0  0  0  0  0  0  0
    3.4380   39.7610   47.1670 C   0  0  0  0  0  0  0  0  0  0  0  0
    2.7080   38.6250   47.5620 C   0  0  0  0  0  0  0  0  0  0  0  0
    2.0880   37.8110   46.6130 C   0  0  0  0  0  0  0  0  0  0  0  0
    2.1840   38.1250   45.2560 C   0  0  0  0  0  0  0  0  0  0  0  0
    2.8930   39.2580   44.8440 C   0  0  0  0  0  0  0  0  0  0  0  0
    2.9570   39.5550   43.5190 F   0  0  0  0  0  0  0  0  0  0  0  0
    3.5200   40.0840   45.7930 C   0  0  0  0  0  0  0  0  0  0  0  0
    4.1830   41.2840   45.3400 C   0  0  0  0  0  0  0  0  0  0  0  0
    4.7130   42.2460   44.9740 N   0  0  0  0  0  0  0  0  0  0  0  0
    3.5750   40.7690   49.3770 N   0  0  0  0  0  0  0  0  0  0  0  0
    7.0786   44.1360   51.4860 H   0  0  0  0  0  0  0  0  0  0  0  0
    5.9994   44.4495   50.0847 H   0  0  0  0  0  0  0  0  0  0  0  0
    7.6791   45.0859   50.0847 H   0  0  0  0  0  0  0  0  0  0  0  0
    6.6666   47.0182   50.7929 H   0  0  0  0  0  0  0  0  0  0  0  0
    5.2145   46.1444   51.4082 H   0  0  0  0  0  0  0  0  0  0  0  0
    6.6504   48.2373   53.2647 H   0  0  0  0  0  0  0  0  0  0  0  0
    7.7292   48.3389   51.0523 H   0  0  0  0  0  0  0  0  0  0  0  0
    8.9078   48.9926   52.2656 H   0  0  0  0  0  0  0  0  0  0  0  0
    8.9958   46.4466   50.6597 H   0  0  0  0  0  0  0  0  0  0  0  0
   10.3141   47.6195   51.1219 H   0  0  0  0  0  0  0  0  0  0  0  0
    9.2252   45.2494   52.6253 H   0  0  0  0  0  0  0  0  0  0  0  0
   10.9289   45.8463   52.4099 H   0  0  0  0  0  0  0  0  0  0  0  0
   10.0556   46.0701   54.7511 H   0  0  0  0  0  0  0  0  0  0  0  0
   10.5712   47.6334   53.9586 H   0  0  0  0  0  0  0  0  0  0  0  0
    7.9642   46.8507   55.0694 H   0  0  0  0  0  0  0  0  0  0  0  0
    8.6566   48.4891   54.6256 H   0  0  0  0  0  0  0  0  0  0  0  0
    3.4894   46.7894   53.0603 H   0  0  0  0  0  0  0  0  0  0  0  0
    4.1829   45.5247   51.9692 H   0  0  0  0  0  0  0  0  0  0  0  0
    3.1202   44.8008   54.7207 H   0  0  0  0  0  0  0  0  0  0  0  0
    2.0151   44.9633   53.3074 H   0  0  0  0  0  0  0  0  0  0  0  0
    3.5030   42.6510   53.8740 H   0  0  0  0  0  0  0  0  0  0  0  0
    4.6890   41.2750   52.2090 H   0  0  0  0  0  0  0  0  0  0  0  0
    6.5610   42.1748   49.6206 H   0  0  0  0  0  0  0  0  0  0  0  0
    6.0093   41.0180   47.2452 H   0  0  0  0  0  0  0  0  0  0  0  0
    2.6251   38.3758   48.6302 H   0  0  0  0  0  0  0  0  0  0  0  0
    1.5241   36.9227   46.9339 H   0  0  0  0  0  0  0  0  0  0  0  0
    1.7004   37.4791   44.5084 H   0  0  0  0  0  0  0  0  0  0  0  0
  1  2  1  0
  2  3  1  0
  3  4  1  0
  4  5  1  0
  5  6  1  0
  6  7  1  0
  7  8  1  0
  8  9  1  0
  3 10  1  0
 10 11  2  0
 10 12  2  0
 10 13  1  0
 13 14  1  0
 14 15  1  0
 15 16  1  0
 16 17  2  0
 16 18  1  0
 18 19  1  0
 19 20  1  0
 20 21  2  0
 21 22  1  0
 22 23  1  0
 23 24  2  0
 24 25  1  0
 25 26  2  0
 26 27  1  0
 27 28  1  0
 27 29  2  0
 29 30  1  0
 30 31  3  0
 22 32  1  0
  9  4  1  0
 32 19  2  0
 29 23  1  0
  1 33  1  0
  1 34  1  0
  1 35  1  0
  2 36  1  0
  2 37  1  0
  4 38  1  0
  5 39  1  0
  5 40  1  0
  6 41  1  0
  6 42  1  0
  7 43  1  0
  7 44  1  0
  8 45  1  0
  8 46  1  0
  9 47  1  0
  9 48  1  0
 13 49  1  0
 13 50  1  0
 14 51  1  0
 14 52  1  0
 15 53  1  0
 18 54  1  0
 20 55  1  0
 21 56  1  0
 24 57  1  0
 25 58  1  0
 26 59  1  0
M  END
>  <meeko>  (1) 
{"is_sidechain": [false], "free_energy": -9.404, "intermolecular_energy": -13.803, "internal_energy": -0.313}

$$$$
ligand_67_conformer_4_docked
     RDKit          3D

 59 61  0  0  0  0  0  0  0  0999 V2000
    7.1750   44.8230   50.3400 C   0  0  0  0  0  0  0  0  0  0  0  0
    6.5320   46.0440   50.9980 C   0  0  0  0  0  0  0  0  0  0  0  0
    6.8680   46.0880   52.4430 N   0  0  0  0  0  0  0  0  0  0  0  0
    7.3810   47.4180   52.9080 C   0  0  0  0  0  0  0  0  0  0  0  0
    8.3630   48.0840   51.9040 C   0  0  0  0  0  0  0  0  0  0  0  0
    9.5370   47.1510   51.5460 C   0  0  0  0  0  0  0  0  0  0  0  0
    9.9100   46.1820   52.6870 C   0  0  0  0  0  0  0  0  0  0  0  0
    9.6300   46.7780   54.0760 C   0  0  0  0  0  0  0  0  0  0  0  0
    8.1800   47.3030   54.2430 C   0  0  0  0  0  0  0  0  0  0  0  0
    5.4630   45.5590   53.3780 S   0  0  0  0  0  0  0  0  0  0  0  0
    5.0140   46.6140   54.3540 O   0  0  0  0  0  0  0  0  0  0  0  0
    5.7750   44.3140   54.1630 O   0  0  0  0  0  0  0  0  0  0  0  0
    4.0990   45.2290   52.2660 C   0  0  0  0  0  0  0  0  0  0  0  0
    3.2070   44.1090   52.8040 C   0  0  0  0  0  0  0  0  0  0  0  0
    2.9820   44.2890   54.2360 N   0  0  0  0  0  0  0  0  0  0  0  0
    1.7750   44.8600   54.7590 C   0  0  0  0  0  0  0  0  0  0  0  0
    0.9320   45.3780   53.9750 O   0  0  0  0  0  0  0  0  0  0  0  0
    1.5140   44.7990   56.1670 N   0  0  0  0  0  0  0  0  0  0  0  0
    0.3920   45.4310   56.7930 C   0  0  0  0  0  0  0  0  0  0  0  0
   -0.9220   44.9970   56.7590 C   0  0  0  0  0  0  0  0  0  0  0  0
   -1.6050   45.9430   57.4960 C   0  0  0  0  0  0  0  0  0  0  0  0
   -0.7280   46.8810   57.9180 N   0  0  0  0  0  0  0  0  0  0  0  0
   -1.0090   47.9830   58.7990 C   0  0  0  0  0  0  0  0  0  0  0  0
   -0.2970   48.0810   60.0080 C   0  0  0  0  0  0  0  0  0  0  0  0
   -0.5620   49.1120   60.9100 C   0  0  0  0  0  0  0  0  0  0  0  0
   -1.5380   50.0660   60.6120 C   0  0  0  0  0  0  0  0  0  0  0  0
   -2.2450   49.9950   59.4080 C   0  0  0  0  0  0  0  0  0  0  0  0
   -3.1770   50.9450   59.1300 F   0  0  0  0  0  0  0  0  0  0  0  0
   -1.9850   48.9590   58.4930 C   0  0  0  0  0  0  0  0  0  0  0  0
   -2.6830   48.9570   57.2300 C   0  0  0  0  0  0  0  0  0  0  0  0
   -3.2440   48.9580   56.2160 N   0  0  0  0  0  0  0  0  0  0  0  0
    0.4900   46.5760   57.4980 N   0  0  0  0  0  0  0  0  0  0  0  0
    7.5372   44.1352   51.1183 H   0  0  0  0  0  0  0  0  0  0  0  0
    6.4305   44.3091   49.7141 H   0  0  0  0  0  0  0  0  0  0  0  0
    8.0199   45.1461   49.7141 H   0  0  0  0  0  0  0  0  0  0  0  0
    6.9049   46.9571   50.5109 H   0  0  0  0  0  0  0  0  0  0  0  0
    5.4397   45.9764   50.8868 H   0  0  0  0  0  0  0  0  0  0  0  0
    6.4695   48.0231   53.0221 H   0  0  0  0  0  0  0  0  0  0  0  0
    7.8151   48.3357   50.9840 H   0  0  0  0  0  0  0  0  0  0  0  0
    8.7762   48.9866   52.3780 H   0  0  0  0  0  0  0  0  0  0  0  0
    9.2569   46.5594   50.6619 H   0  0  0  0  0  0  0  0  0  0  0  0
   10.4145   47.7864   51.3555 H   0  0  0  0  0  0  0  0  0  0  0  0
    9.3221   45.2592   52.5733 H   0  0  0  0  0  0  0  0  0  0  0  0
   10.9896   45.9826   52.6187 H   0  0  0  0  0  0  0  0  0  0  0  0
    9.8073   45.9985   54.8316 H   0  0  0  0  0  0  0  0  0  0  0  0
   10.3024   47.6397   54.2000 H   0  0  0  0  0  0  0  0  0  0  0  0
    7.6393   46.6153   54.9099 H   0  0  0  0  0  0  0  0  0  0  0  0
    8.2588   48.3213   54.6516 H   0  0  0  0  0  0  0  0  0  0  0  0
    3.4983   46.1436   52.1533 H   0  0  0  0  0  0  0  0  0  0  0  0
    4.5088   44.9128   51.2954 H   0  0  0  0  0  0  0  0  0  0  0  0
    2.2408   44.1296   52.2787 H   0  0  0  0  0  0  0  0  0  0  0  0
    3.7039   43.1420   52.6369 H   0  0  0  0  0  0  0  0  0  0  0  0
    3.7280   43.9910   54.9040 H   0  0  0  0  0  0  0  0  0  0  0  0
    2.1090   44.1680   56.7530 H   0  0  0  0  0  0  0  0  0  0  0  0
   -1.3279   44.1046   56.2600 H   0  0  0  0  0  0  0  0  0  0  0  0
   -2.6848   45.9350   57.7054 H   0  0  0  0  0  0  0  0  0  0  0  0
    0.4774   47.3366   60.2451 H   0  0  0  0  0  0  0  0  0  0  0  0
   -0.0027   49.1736   61.8552 H   0  0  0  0  0  0  0  0  0  0  0  0
   -1.7507   50.8750   61.3264 H   0  0  0  0  0  0  0  0  0  0  0  0
  1  2  1  0
  2  3  1  0
  3  4  1  0
  4  5  1  0
  5  6  1  0
  6  7  1  0
  7  8  1  0
  8  9  1  0
  3 10  1  0
 10 11  2  0
 10 12  2  0
 10 13  1  0
 13 14  1  0
 14 15  1  0
 15 16  1  0
 16 17  2  0
 16 18  1  0
 18 19  1  0
 19 20  1  0
 20 21  2  0
 21 22  1  0
 22 23  1  0
 23 24  2  0
 24 25  1  0
 25 26  2  0
 26 27  1  0
 27 28  1  0
 27 29  2  0
 29 30  1  0
 30 31  3  0
 22 32  1  0
  9  4  1  0
 32 19  2  0
 29 23  1  0
  1 33  1  0
  1 34  1  0
  1 35  1  0
  2 36  1  0
  2 37  1  0
  4 38  1  0
  5 39  1  0
  5 40  1  0
  6 41  1  0
  6 42  1  0
  7 43  1  0
  7 44  1  0
  8 45  1  0
  8 46  1  0
  9 47  1  0
  9 48  1  0
 13 49  1  0
 13 50  1  0
 14 51  1  0
 14 52  1  0
 15 53  1  0
 18 54  1  0
 20 55  1  0
 21 56  1  0
 24 57  1  0
 25 58  1  0
 26 59  1  0
M  END
>  <meeko>  (2) 
{"is_sidechain": [false], "free_energy": -9.037, "intermolecular_energy": -12.642, "internal_energy": -0.935}

$$$$
ligand_67_conformer_4_docked
     RDKit          3D

 59 61  0  0  0  0  0  0  0  0999 V2000
    7.1190   44.8440   50.3240 C   0  0  0  0  0  0  0  0  0  0  0  0
    6.4740   46.0010   51.0880 C   0  0  0  0  0  0  0  0  0  0  0  0
    6.8880   45.9720   52.5130 N   0  0  0  0  0  0  0  0  0  0  0  0
    7.2990   47.3090   53.0530 C   0  0  0  0  0  0  0  0  0  0  0  0
    8.1740   48.1300   52.0650 C   0  0  0  0  0  0  0  0  0  0  0  0
    9.4110   47.3350   51.5990 C   0  0  0  0  0  0  0  0  0  0  0  0
    9.9160   46.3290   52.6530 C   0  0  0  0  0  0  0  0  0  0  0  0
    9.6440   46.8000   54.0900 C   0  0  0  0  0  0  0  0  0  0  0  0
    8.1610   47.1770   54.3470 C   0  0  0  0  0  0  0  0  0  0  0  0
    5.5950   45.2410   53.4730 S   0  0  0  0  0  0  0  0  0  0  0  0
    6.1420   44.4280   54.6160 O   0  0  0  0  0  0  0  0  0  0  0  0
    4.7470   44.3280   52.6300 O   0  0  0  0  0  0  0  0  0  0  0  0
    4.5650   46.5310   54.1660 C   0  0  0  0  0  0  0  0  0  0  0  0
    3.7730   46.0190   55.3690 C   0  0  0  0  0  0  0  0  0  0  0  0
    3.0340   44.8110   55.0080 N   0  0  0  0  0  0  0  0  0  0  0  0
    1.7730   44.8550   54.3290 C   0  0  0  0  0  0  0  0  0  0  0  0
    1.1830   45.9590   54.1670 O   0  0  0  0  0  0  0  0  0  0  0  0
    1.2110   43.6480   53.7980 N   0  0  0  0  0  0  0  0  0  0  0  0
   -0.0880   43.5760   53.1990 C   0  0  0  0  0  0  0  0  0  0  0  0
   -1.2850   43.3410   53.8550 C   0  0  0  0  0  0  0  0  0  0  0  0
   -2.2270   43.3600   52.8460 C   0  0  0  0  0  0  0  0  0  0  0  0
   -1.5980   43.5800   51.6690 N   0  0  0  0  0  0  0  0  0  0  0  0
   -2.2220   43.7750   50.3870 C   0  0  0  0  0  0  0  0  0  0  0  0
   -2.2550   42.7000   49.4800 C   0  0  0  0  0  0  0  0  0  0  0  0
   -2.8160   42.8550   48.2120 C   0  0  0  0  0  0  0  0  0  0  0  0
   -3.3590   44.0840   47.8350 C   0  0  0  0  0  0  0  0  0  0  0  0
   -3.3510   45.1610   48.7280 C   0  0  0  0  0  0  0  0  0  0  0  0
   -3.9020   46.3430   48.3460 F   0  0  0  0  0  0  0  0  0  0  0  0
   -2.7870   45.0140   50.0070 C   0  0  0  0  0  0  0  0  0  0  0  0
   -2.8570   46.1240   50.9290 C   0  0  0  0  0  0  0  0  0  0  0  0
   -2.9160   47.0150   51.6660 N   0  0  0  0  0  0  0  0  0  0  0  0
   -0.2980   43.7150   51.8750 N   0  0  0  0  0  0  0  0  0  0  0  0
    7.5260   44.1140   51.0392 H   0  0  0  0  0  0  0  0  0  0  0  0
    6.3630   44.3555   49.6916 H   0  0  0  0  0  0  0  0  0  0  0  0
    7.9320   45.2302   49.6916 H   0  0  0  0  0  0  0  0  0  0  0  0
    6.7896   46.9537   50.6378 H   0  0  0  0  0  0  0  0  0  0  0  0
    5.3800   45.9013   51.0313 H   0  0  0  0  0  0  0  0  0  0  0  0
    6.3426   47.8184   53.2423 H   0  0  0  0  0  0  0  0  0  0  0  0
    7.5674   48.3925   51.1857 H   0  0  0  0  0  0  0  0  0  0  0  0
    8.5243   49.0325   52.5872 H   0  0  0  0  0  0  0  0  0  0  0  0
    9.1479   46.7821   50.6852 H   0  0  0  0  0  0  0  0  0  0  0  0
   10.2196   48.0598   51.4235 H   0  0  0  0  0  0  0  0  0  0  0  0
    9.4077   45.3664   52.4946 H   0  0  0  0  0  0  0  0  0  0  0  0
   11.0052   46.2345   52.5316 H   0  0  0  0  0  0  0  0  0  0  0  0
    9.9221   45.9901   54.7805 H   0  0  0  0  0  0  0  0  0  0  0  0
   10.2418   47.7092   54.2513 H   0  0  0  0  0  0  0  0  0  0  0  0
    7.7126   46.3986   54.9818 H   0  0  0  0  0  0  0  0  0  0  0  0
    8.1659   48.1677   54.8249 H   0  0  0  0  0  0  0  0  0  0  0  0
    5.2040   47.3671   54.4865 H   0  0  0  0  0  0  0  0  0  0  0  0
    3.8532   46.8606   53.3948 H   0  0  0  0  0  0  0  0  0  0  0  0
    4.4676   45.7885   56.1902 H   0  0  0  0  0  0  0  0  0  0  0  0
    3.0607   46.7946   55.6870 H   0  0  0  0  0  0  0  0  0  0  0  0
    3.4410   43.8800   55.2560 H   0  0  0  0  0  0  0  0  0  0  0  0
    1.8220   42.8000   53.7430 H   0  0  0  0  0  0  0  0  0  0  0  0
   -1.4474   43.1772   54.9305 H   0  0  0  0  0  0  0  0  0  0  0  0
   -3.3100   43.2195   52.9775 H   0  0  0  0  0  0  0  0  0  0  0  0
   -1.8341   41.7271   49.7737 H   0  0  0  0  0  0  0  0  0  0  0  0
   -2.8303   42.0086   47.5096 H   0  0  0  0  0  0  0  0  0  0  0  0
   -3.7947   44.2064   46.8324 H   0  0  0  0  0  0  0  0  0  0  0  0
  1  2  1  0
  2  3  1  0
  3  4  1  0
  4  5  1  0
  5  6  1  0
  6  7  1  0
  7  8  1  0
  8  9  1  0
  3 10  1  0
 10 11  2  0
 10 12  2  0
 10 13  1  0
 13 14  1  0
 14 15  1  0
 15 16  1  0
 16 17  2  0
 16 18  1  0
 18 19  1  0
 19 20  1  0
 20 21  2  0
 21 22  1  0
 22 23  1  0
 23 24  2  0
 24 25  1  0
 25 26  2  0
 26 27  1  0
 27 28  1  0
 27 29  2  0
 29 30  1  0
 30 31  3  0
 22 32  1  0
  9  4  1  0
 32 19  2  0
 29 23  1  0
  1 33  1  0
  1 34  1  0
  1 35  1  0
  2 36  1  0
  2 37  1  0
  4 38  1  0
  5 39  1  0
  5 40  1  0
  6 41  1  0
  6 42  1  0
  7 43  1  0
  7 44  1  0
  8 45  1  0
  8 46  1  0
  9 47  1  0
  9 48  1  0
 13 49  1  0
 13 50  1  0
 14 51  1  0
 14 52  1  0
 15 53  1  0
 18 54  1  0
 20 55  1  0
 21 56  1  0
 24 57  1  0
 25 58  1  0
 26 59  1  0
M  END
>  <meeko>  (3) 
{"is_sidechain": [false], "free_energy": -8.914, "intermolecular_energy": -12.066, "internal_energy": -1.33}

$$$$
ligand_67_conformer_4_docked
     RDKit          3D

 59 61  0  0  0  0  0  0  0  0999 V2000
    8.7120   44.3380   49.8880 C   0  0  0  0  0  0  0  0  0  0  0  0
    7.5600   45.3340   50.0230 C   0  0  0  0  0  0  0  0  0  0  0  0
    7.2300   45.5500   51.4540 N   0  0  0  0  0  0  0  0  0  0  0  0
    7.2510   46.9900   51.8720 C   0  0  0  0  0  0  0  0  0  0  0  0
    8.5850   47.7110   51.5300 C   0  0  0  0  0  0  0  0  0  0  0  0
    9.8040   46.9650   52.1090 C   0  0  0  0  0  0  0  0  0  0  0  0
    9.4830   46.1990   53.4090 C   0  0  0  0  0  0  0  0  0  0  0  0
    8.3740   46.8760   54.2300 C   0  0  0  0  0  0  0  0  0  0  0  0
    7.0840   47.1540   53.4150 C   0  0  0  0  0  0  0  0  0  0  0  0
    5.6760   44.7820   51.8090 S   0  0  0  0  0  0  0  0  0  0  0  0
    4.5190   45.6210   51.3350 O   0  0  0  0  0  0  0  0  0  0  0  0
    5.5070   44.5660   53.2880 O   0  0  0  0  0  0  0  0  0  0  0  0
    5.5870   43.2040   50.9670 C   0  0  0  0  0  0  0  0  0  0  0  0
    4.1410   42.7200   50.8560 C   0  0  0  0  0  0  0  0  0  0  0  0
    3.5250   42.6640   52.1800 N   0  0  0  0  0  0  0  0  0  0  0  0
    2.2090   43.1710   52.4390 C   0  0  0  0  0  0  0  0  0  0  0  0
    1.6040   43.8340   51.5520 O   0  0  0  0  0  0  0  0  0  0  0  0
    1.5730   42.8820   53.6900 N   0  0  0  0  0  0  0  0  0  0  0  0
    0.3080   43.4300   54.0800 C   0  0  0  0  0  0  0  0  0  0  0  0
   -0.9020   43.2490   53.4330 C   0  0  0  0  0  0  0  0  0  0  0  0
   -1.7970   43.9790   54.1890 C   0  0  0  0  0  0  0  0  0  0  0  0
   -1.1290   44.5620   55.2090 N   0  0  0  0  0  0  0  0  0  0  0  0
   -1.7040   45.3230   56.2870 C   0  0  0  0  0  0  0  0  0  0  0  0
   -1.4210   46.6990   56.3690 C   0  0  0  0  0  0  0  0  0  0  0  0
   -1.9260   47.4690   57.4170 C   0  0  0  0  0  0  0  0  0  0  0  0
   -2.7280   46.8760   58.3950 C   0  0  0  0  0  0  0  0  0  0  0  0
   -3.0340   45.5130   58.3220 C   0  0  0  0  0  0  0  0  0  0  0  0
   -3.8320   44.9610   59.2740 F   0  0  0  0  0  0  0  0  0  0  0  0
   -2.5280   44.7290   57.2700 C   0  0  0  0  0  0  0  0  0  0  0  0
   -2.9210   43.3430   57.1860 C   0  0  0  0  0  0  0  0  0  0  0  0
   -3.2380   42.2310   57.1210 N   0  0  0  0  0  0  0  0  0  0  0  0
    0.1510   44.2310   55.1530 N   0  0  0  0  0  0  0  0  0  0  0  0
    9.0576   44.0392   50.8887 H   0  0  0  0  0  0  0  0  0  0  0  0
    8.3662   43.4497   49.3391 H   0  0  0  0  0  0  0  0  0  0  0  0
    9.5411   44.8085   49.3391 H   0  0  0  0  0  0  0  0  0  0  0  0
    7.8540   46.2923   49.5699 H   0  0  0  0  0  0  0  0  0  0  0  0
    6.6755   44.9294   49.5092 H   0  0  0  0  0  0  0  0  0  0  0  0
    6.4131   47.4348   51.3151 H   0  0  0  0  0  0  0  0  0  0  0  0
    8.6888   47.7678   50.4364 H   0  0  0  0  0  0  0  0  0  0  0  0
    8.5550   48.7156   51.9770 H   0  0  0  0  0  0  0  0  0  0  0  0
   10.1632   46.2456   51.3583 H   0  0  0  0  0  0  0  0  0  0  0  0
   10.5655   47.7204   52.3528 H   0  0  0  0  0  0  0  0  0  0  0  0
    9.1578   45.1811   53.1480 H   0  0  0  0  0  0  0  0  0  0  0  0
   10.3948   46.1859   54.0241 H   0  0  0  0  0  0  0  0  0  0  0  0
    8.1174   46.2209   55.0756 H   0  0  0  0  0  0  0  0  0  0  0  0
    8.7644   47.8498   54.5606 H   0  0  0  0  0  0  0  0  0  0  0  0
    6.3053   46.4546   53.7534 H   0  0  0  0  0  0  0  0  0  0  0  0
    6.8199   48.2069   53.5930 H   0  0  0  0  0  0  0  0  0  0  0  0
    6.0083   43.3117   49.9566 H   0  0  0  0  0  0  0  0  0  0  0  0
    6.1590   42.4654   51.5478 H   0  0  0  0  0  0  0  0  0  0  0  0
    3.5730   43.4149   50.2200 H   0  0  0  0  0  0  0  0  0  0  0  0
    4.1323   41.7132   50.4130 H   0  0  0  0  0  0  0  0  0  0  0  0
    4.0660   42.2390   52.9680 H   0  0  0  0  0  0  0  0  0  0  0  0
    1.9960   42.1470   54.3030 H   0  0  0  0  0  0  0  0  0  0  0  0
   -1.1038   42.6598   52.5263 H   0  0  0  0  0  0  0  0  0  0  0  0
   -2.8756   44.0710   53.9936 H   0  0  0  0  0  0  0  0  0  0  0  0
   -0.7949   47.1726   55.5985 H   0  0  0  0  0  0  0  0  0  0  0  0
   -1.6928   48.5425   57.4732 H   0  0  0  0  0  0  0  0  0  0  0  0
   -3.1200   47.4825   59.2248 H   0  0  0  0  0  0  0  0  0  0  0  0
  1  2  1  0
  2  3  1  0
  3  4  1  0
  4  5  1  0
  5  6  1  0
  6  7  1  0
  7  8  1  0
  8  9  1  0
  3 10  1  0
 10 11  2  0
 10 12  2  0
 10 13  1  0
 13 14  1  0
 14 15  1  0
 15 16  1  0
 16 17  2  0
 16 18  1  0
 18 19  1  0
 19 20  1  0
 20 21  2  0
 21 22  1  0
 22 23  1  0
 23 24  2  0
 24 25  1  0
 25 26  2  0
 26 27  1  0
 27 28  1  0
 27 29  2  0
 29 30  1  0
 30 31  3  0
 22 32  1  0
  9  4  1  0
 32 19  2  0
 29 23  1  0
  1 33  1  0
  1 34  1  0
  1 35  1  0
  2 36  1  0
  2 37  1  0
  4 38  1  0
  5 39  1  0
  5 40  1  0
  6 41  1  0
  6 42  1  0
  7 43  1  0
  7 44  1  0
  8 45  1  0
  8 46  1  0
  9 47  1  0
  9 48  1  0
 13 49  1  0
 13 50  1  0
 14 51  1  0
 14 52  1  0
 15 53  1  0
 18 54  1  0
 20 55  1  0
 21 56  1  0
 24 57  1  0
 25 58  1  0
 26 59  1  0
M  END
>  <meeko>  (4) 
{"is_sidechain": [false], "free_energy": -8.434, "intermolecular_energy": -11.732, "internal_energy": -0.959}

$$$$
ligand_67_conformer_4_docked
     RDKit          3D

 59 61  0  0  0  0  0  0  0  0999 V2000
   -3.9370   45.7900   53.7810 C   0  0  0  0  0  0  0  0  0  0  0  0
   -3.1750   44.6110   54.3880 C   0  0  0  0  0  0  0  0  0  0  0  0
   -1.8670   45.0640   54.9250 N   0  0  0  0  0  0  0  0  0  0  0  0
   -1.5030   44.4440   56.2410 C   0  0  0  0  0  0  0  0  0  0  0  0
   -2.5760   44.6670   57.3440 C   0  0  0  0  0  0  0  0  0  0  0  0
   -2.9070   46.1620   57.5280 C   0  0  0  0  0  0  0  0  0  0  0  0
   -1.7170   47.0890   57.2040 C   0  0  0  0  0  0  0  0  0  0  0  0
   -0.3620   46.4290   57.5020 C   0  0  0  0  0  0  0  0  0  0  0  0
   -0.1870   45.0440   56.8260 C   0  0  0  0  0  0  0  0  0  0  0  0
   -0.6190   44.7970   53.7010 S   0  0  0  0  0  0  0  0  0  0  0  0
    0.6860   45.4430   54.0870 O   0  0  0  0  0  0  0  0  0  0  0  0
   -1.0350   45.3690   52.3730 O   0  0  0  0  0  0  0  0  0  0  0  0
   -0.3260   43.0400   53.5230 C   0  0  0  0  0  0  0  0  0  0  0  0
    0.1270   42.6980   52.1020 C   0  0  0  0  0  0  0  0  0  0  0  0
    1.5710   42.4760   52.0740 N   0  0  0  0  0  0  0  0  0  0  0  0
    2.5050   43.5280   51.8000 C   0  0  0  0  0  0  0  0  0  0  0  0
    2.0900   44.6550   51.4110 O   0  0  0  0  0  0  0  0  0  0  0  0
    3.9050   43.3050   52.0120 N   0  0  0  0  0  0  0  0  0  0  0  0
    4.9200   44.2560   51.6680 C   0  0  0  0  0  0  0  0  0  0  0  0
    4.9990   44.9860   50.4940 C   0  0  0  0  0  0  0  0  0  0  0  0
    6.1450   45.7390   50.6470 C   0  0  0  0  0  0  0  0  0  0  0  0
    6.7030   45.4440   51.8430 N   0  0  0  0  0  0  0  0  0  0  0  0
    7.8490   46.0810   52.4360 C   0  0  0  0  0  0  0  0  0  0  0  0
    9.1080   45.9030   51.8340 C   0  0  0  0  0  0  0  0  0  0  0  0
   10.2520   46.4720   52.3940 C   0  0  0  0  0  0  0  0  0  0  0  0
   10.1530   47.2320   53.5620 C   0  0  0  0  0  0  0  0  0  0  0  0
    8.9080   47.4330   54.1660 C   0  0  0  0  0  0  0  0  0  0  0  0
    8.8330   48.1930   55.2910 F   0  0  0  0  0  0  0  0  0  0  0  0
    7.7500   46.8640   53.6080 C   0  0  0  0  0  0  0  0  0  0  0  0
    6.4730   47.1500   54.2180 C   0  0  0  0  0  0  0  0  0  0  0  0
    5.4500   47.3820   54.7080 N   0  0  0  0  0  0  0  0  0  0  0  0
    5.9620   44.5450   52.4720 N   0  0  0  0  0  0  0  0  0  0  0  0
   -4.3431   46.4183   54.5874 H   0  0  0  0  0  0  0  0  0  0  0  0
   -3.2537   46.3873   53.1595 H   0  0  0  0  0  0  0  0  0  0  0  0
   -4.7623   45.4123   53.1595 H   0  0  0  0  0  0  0  0  0  0  0  0
   -3.7707   44.1752   55.2036 H   0  0  0  0  0  0  0  0  0  0  0  0
   -2.9990   43.8580   53.6057 H   0  0  0  0  0  0  0  0  0  0  0  0
   -1.4015   43.3742   56.0060 H   0  0  0  0  0  0  0  0  0  0  0  0
   -3.4941   44.1314   57.0609 H   0  0  0  0  0  0  0  0  0  0  0  0
   -2.1732   44.2868   58.2944 H   0  0  0  0  0  0  0  0  0  0  0  0
   -3.7435   46.4201   56.8619 H   0  0  0  0  0  0  0  0  0  0  0  0
   -3.1625   46.3137   58.5871 H   0  0  0  0  0  0  0  0  0  0  0  0
   -1.7546   47.3520   56.1366 H   0  0  0  0  0  0  0  0  0  0  0  0
   -1.8032   47.9807   57.8423 H   0  0  0  0  0  0  0  0  0  0  0  0
    0.4363   47.0952   57.1429 H   0  0  0  0  0  0  0  0  0  0  0  0
   -0.3127   46.2673   58.5889 H   0  0  0  0  0  0  0  0  0  0  0  0
    0.5377   45.1504   56.0053 H   0  0  0  0  0  0  0  0  0  0  0  0
    0.1535   44.3517   57.6101 H   0  0  0  0  0  0  0  0  0  0  0  0
    0.4558   42.7325   54.2331 H   0  0  0  0  0  0  0  0  0  0  0  0
   -1.2660   42.5066   53.7278 H   0  0  0  0  0  0  0  0  0  0  0  0
   -0.3877   41.7858   51.7659 H   0  0  0  0  0  0  0  0  0  0  0  0
   -0.1210   43.5360   51.4340 H   0  0  0  0  0  0  0  0  0  0  0  0
    1.9350   41.5140   52.2600 H   0  0  0  0  0  0  0  0  0  0  0  0
    4.1950   42.4540   52.5480 H   0  0  0  0  0  0  0  0  0  0  0  0
    4.3084   44.9694   49.6380 H   0  0  0  0  0  0  0  0  0  0  0  0
    6.5397   46.4605   49.9165 H   0  0  0  0  0  0  0  0  0  0  0  0
    9.1912   45.3089   50.9120 H   0  0  0  0  0  0  0  0  0  0  0  0
   11.2314   46.3223   51.9162 H   0  0  0  0  0  0  0  0  0  0  0  0
   11.0567   47.6734   54.0076 H   0  0  0  0  0  0  0  0  0  0  0  0
  1  2  1  0
  2  3  1  0
  3  4  1  0
  4  5  1  0
  5  6  1  0
  6  7  1  0
  7  8  1  0
  8  9  1  0
  3 10  1  0
 10 11  2  0
 10 12  2  0
 10 13  1  0
 13 14  1  0
 14 15  1  0
 15 16  1  0
 16 17  2  0
 16 18  1  0
 18 19  1  0
 19 20  1  0
 20 21  2  0
 21 22  1  0
 22 23  1  0
 23 24  2  0
 24 25  1  0
 25 26  2  0
 26 27  1  0
 27 28  1  0
 27 29  2  0
 29 30  1  0
 30 31  3  0
 22 32  1  0
  9  4  1  0
 32 19  2  0
 29 23  1  0
  1 33  1  0
  1 34  1  0
  1 35  1  0
  2 36  1  0
  2 37  1  0
  4 38  1  0
  5 39  1  0
  5 40  1  0
  6 41  1  0
  6 42  1  0
  7 43  1  0
  7 44  1  0
  8 45  1  0
  8 46  1  0
  9 47  1  0
  9 48  1  0
 13 49  1  0
 13 50  1  0
 14 51  1  0
 14 52  1  0
 15 53  1  0
 18 54  1  0
 20 55  1  0
 21 56  1  0
 24 57  1  0
 25 58  1  0
 26 59  1  0
M  END
>  <meeko>  (5) 
{"is_sidechain": [false], "free_energy": -8.336, "intermolecular_energy": -12.111, "internal_energy": -0.437}

$$$$
