MODEL 1
REMARK VINA RESULT:    -8.326      0.000      0.000
REMARK INTER + INTRA:         -12.563
REMARK INTER:                 -11.246
REMARK INTRA:                  -1.317
REMARK UNBOUND:                -1.317
REMARK SMILES COc1ccc(-c2nc(CCNC(=O)c3cncc(F)c3)co2)cc1
REMARK SMILES IDX 10 1 9 2 7 3 8 4 23 5 22 6 6 7 3 8 4 9 25 10 5 11 24 12 2 13
REMARK SMILES IDX 1 14 11 15 12 16 13 17 14 18 15 20 16 21 21 22 17 23 19 24
REMARK SMILES IDX 18 25 20 26
REMARK H PARENT 12 19
ROOT
ATOM      1  C   UNL     1       1.010  44.029  54.429  1.00  0.00     0.081 C 
ENDROOT
BRANCH   1   2
ATOM      2  C   UNL     1       2.001  45.012  53.883  1.00  0.00     0.081 A 
ATOM      3  C   UNL     1       3.808  45.982  53.381  1.00  0.00     0.226 A 
ATOM      4  N   UNL     1       3.327  44.945  54.101  1.00  0.00    -0.214 NA
ATOM      5  O   UNL     1       2.860  46.645  52.753  1.00  0.00    -0.444 OA
ATOM      6  C   UNL     1       1.722  46.064  53.041  1.00  0.00     0.221 A 
BRANCH   3   7
ATOM      7  C   UNL     1       5.242  46.331  53.302  1.00  0.00     0.037 A 
ATOM      8  C   UNL     1       7.977  46.995  53.136  1.00  0.00     0.118 A 
ATOM      9  C   UNL     1       7.342  46.901  54.389  1.00  0.00     0.047 A 
ATOM     10  C   UNL     1       7.234  46.753  51.975  1.00  0.00     0.047 A 
ATOM     11  C   UNL     1       5.986  46.572  54.469  1.00  0.00     0.017 A 
ATOM     12  C   UNL     1       5.878  46.424  52.055  1.00  0.00     0.017 A 
BRANCH   8  13
ATOM     13  O   UNL     1       9.335  47.321  53.003  1.00  0.00    -0.497 OA
ATOM     14  C   UNL     1      10.272  46.566  52.242  1.00  0.00     0.278 C 
ENDBRANCH   8  13
ENDBRANCH   3   7
ENDBRANCH   1   2
BRANCH   1  15
ATOM     15  C   UNL     1       1.057  42.706  53.657  1.00  0.00     0.122 C 
BRANCH  15  16
ATOM     16  N   UNL     1       2.322  42.547  52.939  1.00  0.00    -0.352 N 
ATOM     17  C   UNL     1       2.391  42.691  51.512  1.00  0.00     0.252 C 
ATOM     18  O   UNL     1       1.401  43.159  50.885  1.00  0.00    -0.269 OA
ATOM     19  H   UNL     1       3.199  42.366  53.476  1.00  0.00     0.163 HD
BRANCH  17  20
ATOM     20  C   UNL     1       3.613  42.313  50.762  1.00  0.00     0.061 A 
ATOM     21  C   UNL     1       3.625  41.158  49.961  1.00  0.00     0.125 A 
ATOM     22  C   UNL     1       4.792  43.074  50.851  1.00  0.00     0.056 A 
ATOM     23  N   UNL     1       4.748  40.805  49.279  1.00  0.00    -0.261 NA
ATOM     24  C   UNL     1       5.930  42.689  50.140  1.00  0.00     0.142 A 
ATOM     25  C   UNL     1       5.888  41.541  49.348  1.00  0.00     0.150 A 
ATOM     26  F   UNL     1       7.069  43.419  50.224  1.00  0.00    -0.205 F 
ENDBRANCH  17  20
ENDBRANCH  15  16
ENDBRANCH   1  15
TORSDOF 6
ENDMDL
MODEL 2
REMARK VINA RESULT:    -7.933      2.606      6.457
REMARK INTER + INTRA:         -12.033
REMARK INTER:                 -10.890
REMARK INTRA:                  -1.144
REMARK UNBOUND:                -1.317
REMARK SMILES COc1ccc(-c2nc(CCNC(=O)c3cncc(F)c3)co2)cc1
REMARK SMILES IDX 10 1 9 2 7 3 8 4 23 5 22 6 6 7 3 8 4 9 25 10 5 11 24 12 2 13
REMARK SMILES IDX 1 14 11 15 12 16 13 17 14 18 15 20 16 21 21 22 17 23 19 24
REMARK SMILES IDX 18 25 20 26
REMARK H PARENT 12 19
ROOT
ATOM      1  C   UNL     1       6.254  41.482  49.726  1.00  0.00     0.081 C 
ENDROOT
BRANCH   1   2
ATOM      2  C   UNL     1       4.946  41.755  50.405  1.00  0.00     0.081 A 
ATOM      3  C   UNL     1       3.461  42.586  51.655  1.00  0.00     0.226 A 
ATOM      4  N   UNL     1       4.788  42.638  51.408  1.00  0.00    -0.214 NA
ATOM      5  O   UNL     1       2.832  41.743  50.865  1.00  0.00    -0.444 OA
ATOM      6  C   UNL     1       3.727  41.211  50.070  1.00  0.00     0.221 A 
BRANCH   3   7
ATOM      7  C   UNL     1       2.787  43.391  52.695  1.00  0.00     0.037 A 
ATOM      8  C   UNL     1       1.488  44.919  54.678  1.00  0.00     0.118 A 
ATOM      9  C   UNL     1       2.762  45.294  54.211  1.00  0.00     0.047 A 
ATOM     10  C   UNL     1       0.875  43.779  54.145  1.00  0.00     0.047 A 
ATOM     11  C   UNL     1       3.404  44.535  53.228  1.00  0.00     0.017 A 
ATOM     12  C   UNL     1       1.517  43.021  53.162  1.00  0.00     0.017 A 
BRANCH   8  13
ATOM     13  O   UNL     1       0.803  45.647  55.662  1.00  0.00    -0.497 OA
ATOM     14  C   UNL     1       0.543  45.171  56.978  1.00  0.00     0.278 C 
ENDBRANCH   8  13
ENDBRANCH   3   7
ENDBRANCH   1   2
BRANCH   1  15
ATOM     15  C   UNL     1       6.709  42.686  48.893  1.00  0.00     0.122 C 
BRANCH  15  16
ATOM     16  N   UNL     1       6.763  43.907  49.698  1.00  0.00    -0.352 N 
ATOM     17  C   UNL     1       8.013  44.540  50.008  1.00  0.00     0.252 C 
ATOM     18  O   UNL     1       9.063  44.166  49.417  1.00  0.00    -0.269 OA
ATOM     19  H   UNL     1       5.873  44.350  50.020  1.00  0.00     0.163 HD
BRANCH  17  20
ATOM     20  C   UNL     1       8.091  45.638  51.001  1.00  0.00     0.061 A 
ATOM     21  C   UNL     1       9.339  46.140  51.409  1.00  0.00     0.125 A 
ATOM     22  C   UNL     1       6.932  46.185  51.580  1.00  0.00     0.056 A 
ATOM     23  N   UNL     1       9.412  47.142  52.326  1.00  0.00    -0.261 NA
ATOM     24  C   UNL     1       7.036  47.213  52.519  1.00  0.00     0.142 A 
ATOM     25  C   UNL     1       8.298  47.686  52.882  1.00  0.00     0.150 A 
ATOM     26  F   UNL     1       5.922  47.742  53.080  1.00  0.00    -0.205 F 
ENDBRANCH  17  20
ENDBRANCH  15  16
ENDBRANCH   1  15
TORSDOF 6
ENDMDL
MODEL 3
REMARK VINA RESULT:    -7.860      2.831      6.975
REMARK INTER + INTRA:         -11.935
REMARK INTER:                 -10.950
REMARK INTRA:                  -0.985
REMARK UNBOUND:                -1.317
REMARK SMILES COc1ccc(-c2nc(CCNC(=O)c3cncc(F)c3)co2)cc1
REMARK SMILES IDX 10 1 9 2 7 3 8 4 23 5 22 6 6 7 3 8 4 9 25 10 5 11 24 12 2 13
REMARK SMILES IDX 1 14 11 15 12 16 13 17 14 18 15 20 16 21 21 22 17 23 19 24
REMARK SMILES IDX 18 25 20 26
REMARK H PARENT 12 19
ROOT
ATOM      1  C   UNL     1       7.165  43.426  48.517  1.00  0.00     0.081 C 
ENDROOT
BRANCH   1   2
ATOM      2  C   UNL     1       6.245  43.019  49.629  1.00  0.00     0.081 A 
ATOM      3  C   UNL     1       4.874  43.083  51.234  1.00  0.00     0.226 A 
ATOM      4  N   UNL     1       5.623  43.887  50.448  1.00  0.00    -0.214 NA
ATOM      5  O   UNL     1       5.007  41.810  50.928  1.00  0.00    -0.444 OA
ATOM      6  C   UNL     1       5.851  41.735  49.929  1.00  0.00     0.221 A 
BRANCH   3   7
ATOM      7  C   UNL     1       3.997  43.578  52.315  1.00  0.00     0.037 A 
ATOM      8  C   UNL     1       2.336  44.530  54.385  1.00  0.00     0.118 A 
ATOM      9  C   UNL     1       1.849  43.590  53.457  1.00  0.00     0.047 A 
ATOM     10  C   UNL     1       3.654  44.984  54.267  1.00  0.00     0.047 A 
ATOM     11  C   UNL     1       2.674  43.119  52.431  1.00  0.00     0.017 A 
ATOM     12  C   UNL     1       4.479  44.514  53.242  1.00  0.00     0.017 A 
BRANCH   8  13
ATOM     13  O   UNL     1       1.548  45.032  55.432  1.00  0.00    -0.497 OA
ATOM     14  C   UNL     1       0.135  45.197  55.366  1.00  0.00     0.278 C 
ENDBRANCH   8  13
ENDBRANCH   3   7
ENDBRANCH   1   2
BRANCH   1  15
ATOM     15  C   UNL     1       8.481  43.989  49.064  1.00  0.00     0.122 C 
BRANCH  15  16
ATOM     16  N   UNL     1       8.246  44.997  50.099  1.00  0.00    -0.352 N 
ATOM     17  C   UNL     1       9.278  45.366  51.026  1.00  0.00     0.252 C 
ATOM     18  O   UNL     1      10.461  44.975  50.829  1.00  0.00    -0.269 OA
ATOM     19  H   UNL     1       7.325  45.487  50.139  1.00  0.00     0.163 HD
BRANCH  17  20
ATOM     20  C   UNL     1       8.980  46.213  52.206  1.00  0.00     0.061 A 
ATOM     21  C   UNL     1       7.700  46.767  52.378  1.00  0.00     0.125 A 
ATOM     22  C   UNL     1       9.967  46.508  53.164  1.00  0.00     0.056 A 
ATOM     23  N   UNL     1       7.428  47.551  53.456  1.00  0.00    -0.261 NA
ATOM     24  C   UNL     1       9.660  47.315  54.261  1.00  0.00     0.142 A 
ATOM     25  C   UNL     1       8.371  47.831  54.393  1.00  0.00     0.150 A 
ATOM     26  F   UNL     1      10.609  47.602  55.185  1.00  0.00    -0.205 F 
ENDBRANCH  17  20
ENDBRANCH  15  16
ENDBRANCH   1  15
TORSDOF 6
ENDMDL
MODEL 4
REMARK VINA RESULT:    -7.733      2.522      7.057
REMARK INTER + INTRA:         -11.763
REMARK INTER:                 -10.879
REMARK INTRA:                  -0.884
REMARK UNBOUND:                -1.317
REMARK SMILES COc1ccc(-c2nc(CCNC(=O)c3cncc(F)c3)co2)cc1
REMARK SMILES IDX 10 1 9 2 7 3 8 4 23 5 22 6 6 7 3 8 4 9 25 10 5 11 24 12 2 13
REMARK SMILES IDX 1 14 11 15 12 16 13 17 14 18 15 20 16 21 21 22 17 23 19 24
REMARK SMILES IDX 18 25 20 26
REMARK H PARENT 12 19
ROOT
ATOM      1  C   UNL     1       7.686  43.475  48.924  1.00  0.00     0.081 C 
ENDROOT
BRANCH   1   2
ATOM      2  C   UNL     1       6.551  42.872  49.696  1.00  0.00     0.081 A 
ATOM      3  C   UNL     1       4.765  42.637  50.799  1.00  0.00     0.226 A 
ATOM      4  N   UNL     1       5.576  43.588  50.286  1.00  0.00    -0.214 NA
ATOM      5  O   UNL     1       5.192  41.418  50.546  1.00  0.00    -0.444 OA
ATOM      6  C   UNL     1       6.300  41.528  49.856  1.00  0.00     0.221 A 
BRANCH   3   7
ATOM      7  C   UNL     1       3.532  42.931  51.558  1.00  0.00     0.037 A 
ATOM      8  C   UNL     1       1.188  43.500  53.019  1.00  0.00     0.118 A 
ATOM      9  C   UNL     1       1.123  42.741  51.835  1.00  0.00     0.047 A 
ATOM     10  C   UNL     1       2.431  43.968  53.461  1.00  0.00     0.047 A 
ATOM     11  C   UNL     1       2.287  42.460  51.113  1.00  0.00     0.017 A 
ATOM     12  C   UNL     1       3.594  43.687  52.739  1.00  0.00     0.017 A 
BRANCH   8  13
ATOM     13  O   UNL     1       0.050  43.808  53.779  1.00  0.00    -0.497 OA
ATOM     14  C   UNL     1      -1.181  44.267  53.233  1.00  0.00     0.278 C 
ENDBRANCH   8  13
ENDBRANCH   3   7
ENDBRANCH   1   2
BRANCH   1  15
ATOM     15  C   UNL     1       8.326  44.635  49.695  1.00  0.00     0.122 C 
BRANCH  15  16
ATOM     16  N   UNL     1       7.343  45.343  50.517  1.00  0.00    -0.352 N 
ATOM     17  C   UNL     1       7.732  46.029  51.716  1.00  0.00     0.252 C 
ATOM     18  O   UNL     1       8.957  46.203  51.965  1.00  0.00    -0.269 OA
ATOM     19  H   UNL     1       6.348  45.385  50.205  1.00  0.00     0.163 HD
BRANCH  17  20
ATOM     20  C   UNL     1       6.718  46.551  52.663  1.00  0.00     0.061 A 
ATOM     21  C   UNL     1       7.055  46.785  54.007  1.00  0.00     0.125 A 
ATOM     22  C   UNL     1       5.394  46.798  52.256  1.00  0.00     0.056 A 
ATOM     23  N   UNL     1       6.123  47.257  54.879  1.00  0.00    -0.261 NA
ATOM     24  C   UNL     1       4.458  47.282  53.171  1.00  0.00     0.142 A 
ATOM     25  C   UNL     1       4.845  47.511  54.492  1.00  0.00     0.150 A 
ATOM     26  F   UNL     1       3.182  47.520  52.783  1.00  0.00    -0.205 F 
ENDBRANCH  17  20
ENDBRANCH  15  16
ENDBRANCH   1  15
TORSDOF 6
ENDMDL
MODEL 5
REMARK VINA RESULT:    -7.677      2.387      5.612
REMARK INTER + INTRA:         -11.687
REMARK INTER:                 -10.469
REMARK INTRA:                  -1.218
REMARK UNBOUND:                -1.317
REMARK SMILES COc1ccc(-c2nc(CCNC(=O)c3cncc(F)c3)co2)cc1
REMARK SMILES IDX 10 1 9 2 7 3 8 4 23 5 22 6 6 7 3 8 4 9 25 10 5 11 24 12 2 13
REMARK SMILES IDX 1 14 11 15 12 16 13 17 14 18 15 20 16 21 21 22 17 23 19 24
REMARK SMILES IDX 18 25 20 26
REMARK H PARENT 12 19
ROOT
ATOM      1  C   UNL     1       8.024  47.459  51.915  1.00  0.00     0.081 C 
ENDROOT
BRANCH   1   2
ATOM      2  C   UNL     1       7.015  47.063  52.951  1.00  0.00     0.081 A 
ATOM      3  C   UNL     1       5.223  46.451  53.886  1.00  0.00     0.226 A 
ATOM      4  N   UNL     1       5.718  46.820  52.685  1.00  0.00    -0.214 NA
ATOM      5  O   UNL     1       6.137  46.455  54.833  1.00  0.00    -0.444 OA
ATOM      6  C   UNL     1       7.266  46.827  54.283  1.00  0.00     0.221 A 
BRANCH   3   7
ATOM      7  C   UNL     1       3.811  46.080  54.114  1.00  0.00     0.037 A 
ATOM      8  C   UNL     1       1.120  45.366  54.563  1.00  0.00     0.118 A 
ATOM      9  C   UNL     1       1.554  45.735  53.275  1.00  0.00     0.047 A 
ATOM     10  C   UNL     1       2.042  45.358  55.616  1.00  0.00     0.047 A 
ATOM     11  C   UNL     1       2.888  46.088  53.055  1.00  0.00     0.017 A 
ATOM     12  C   UNL     1       3.376  45.711  55.396  1.00  0.00     0.017 A 
BRANCH   8  13
ATOM     13  O   UNL     1      -0.207  45.003  54.835  1.00  0.00    -0.497 OA
ATOM     14  C   UNL     1      -0.770  44.935  56.141  1.00  0.00     0.278 C 
ENDBRANCH   8  13
ENDBRANCH   3   7
ENDBRANCH   1   2
BRANCH   1  15
ATOM     15  C   UNL     1       8.207  46.354  50.869  1.00  0.00     0.122 C 
BRANCH  15  16
ATOM     16  N   UNL     1       7.268  45.251  51.081  1.00  0.00    -0.352 N 
ATOM     17  C   UNL     1       7.129  44.196  50.117  1.00  0.00     0.252 C 
ATOM     18  O   UNL     1       7.964  44.100  49.175  1.00  0.00    -0.269 OA
ATOM     19  H   UNL     1       6.718  45.208  51.967  1.00  0.00     0.163 HD
BRANCH  17  20
ATOM     20  C   UNL     1       6.030  43.207  50.217  1.00  0.00     0.061 A 
ATOM     21  C   UNL     1       5.979  42.110  49.339  1.00  0.00     0.125 A 
ATOM     22  C   UNL     1       5.000  43.349  51.165  1.00  0.00     0.056 A 
ATOM     23  N   UNL     1       4.966  41.206  49.425  1.00  0.00    -0.261 NA
ATOM     24  C   UNL     1       3.973  42.406  51.231  1.00  0.00     0.142 A 
ATOM     25  C   UNL     1       3.974  41.328  50.345  1.00  0.00     0.150 A 
ATOM     26  F   UNL     1       2.979  42.541  52.142  1.00  0.00    -0.205 F 
ENDBRANCH  17  20
ENDBRANCH  15  16
ENDBRANCH   1  15
TORSDOF 6
ENDMDL
