MODEL 1
REMARK VINA RESULT:    -9.139      0.000      0.000
REMARK INTER + INTRA:         -12.749
REMARK INTER:                 -11.811
REMARK INTRA:                  -0.939
REMARK UNBOUND:                -0.939
REMARK SMILES Cc1cccc(Oc2ccc(C(=O)Nc3cccc([C@H]4CCC(=O)N4)c3)nc2)c1
REMARK SMILES IDX 8 1 9 2 10 3 11 4 27 5 28 6 7 7 6 8 2 9 3 10 29 11 4 12 5 13
REMARK SMILES IDX 1 14 12 15 13 16 14 17 15 19 16 20 26 21 17 22 19 23 18 24
REMARK SMILES IDX 20 25 21 26 25 27 22 28 23 29 24 30
REMARK H PARENT 14 18 25 31
ROOT
ATOM      1  C   UNL     1       0.288  44.968  55.355  1.00  0.00     0.145 A 
ATOM      2  C   UNL     1       1.636  45.070  55.734  1.00  0.00     0.051 A 
ATOM      3  C   UNL     1       2.634  45.113  54.759  1.00  0.00     0.038 A 
ATOM      4  C   UNL     1       2.279  45.068  53.401  1.00  0.00     0.128 A 
ATOM      5  N   UNL     1       0.964  44.987  53.061  1.00  0.00    -0.247 NA
ATOM      6  C   UNL     1      -0.025  44.944  53.993  1.00  0.00     0.159 A 
ENDROOT
BRANCH   1   7
ATOM      7  O   UNL     1      -0.752  44.936  56.294  1.00  0.00    -0.456 OA
BRANCH   7   8
ATOM      8  C   UNL     1      -1.423  46.059  56.803  1.00  0.00     0.127 A 
ATOM      9  C   UNL     1      -1.569  47.972  58.310  1.00  0.00    -0.047 A 
ATOM     10  C   UNL     1      -2.848  48.258  57.807  1.00  0.00     0.003 A 
ATOM     11  C   UNL     1      -0.866  46.861  57.816  1.00  0.00     0.050 A 
ATOM     12  C   UNL     1      -3.410  47.452  56.815  1.00  0.00     0.004 A 
ATOM     13  C   UNL     1      -2.702  46.354  56.318  1.00  0.00     0.047 A 
ATOM     14  C   UNL     1      -0.970  48.807  59.402  1.00  0.00     0.044 C 
ENDBRANCH   7   8
ENDBRANCH   1   7
BRANCH   4  15
ATOM     15  C   UNL     1       3.311  45.105  52.340  1.00  0.00     0.274 C 
ATOM     16  O   UNL     1       3.104  45.776  51.292  1.00  0.00    -0.267 OA
ATOM     17  N   UNL     1       4.526  44.350  52.483  1.00  0.00    -0.321 N 
ATOM     18  H   UNL     1       4.543  43.564  53.173  1.00  0.00     0.170 HD
BRANCH  17  19
ATOM     19  C   UNL     1       5.684  44.528  51.649  1.00  0.00     0.041 A 
ATOM     20  C   UNL     1       5.880  43.755  50.491  1.00  0.00     0.026 A 
ATOM     21  C   UNL     1       6.611  45.534  51.964  1.00  0.00     0.032 A 
ATOM     22  C   UNL     1       7.001  43.965  49.684  1.00  0.00     0.003 A 
ATOM     23  C   UNL     1       7.747  45.744  51.162  1.00  0.00    -0.024 A 
ATOM     24  C   UNL     1       7.931  44.953  50.017  1.00  0.00     0.006 A 
BRANCH  23  25
ATOM     25  C   UNL     1       8.742  46.834  51.498  1.00  0.00     0.113 C 
ATOM     26  C   UNL     1       8.053  48.075  52.125  1.00  0.00     0.040 C 
ATOM     27  N   UNL     1       9.694  46.364  52.488  1.00  0.00    -0.349 N 
ATOM     28  C   UNL     1       8.583  48.215  53.561  1.00  0.00     0.102 C 
ATOM     29  C   UNL     1       9.603  47.152  53.654  1.00  0.00     0.220 C 
ATOM     30  O   UNL     1      10.311  46.944  54.673  1.00  0.00    -0.275 OA
ATOM     31  H   UNL     1      10.342  45.555  52.363  1.00  0.00     0.164 HD
ENDBRANCH  23  25
ENDBRANCH  17  19
ENDBRANCH   4  15
TORSDOF 5
ENDMDL
MODEL 2
REMARK VINA RESULT:    -8.995      1.763      2.092
REMARK INTER + INTRA:         -12.563
REMARK INTER:                 -11.887
REMARK INTRA:                  -0.676
REMARK UNBOUND:                -0.939
REMARK SMILES Cc1cccc(Oc2ccc(C(=O)Nc3cccc([C@H]4CCC(=O)N4)c3)nc2)c1
REMARK SMILES IDX 8 1 9 2 10 3 11 4 27 5 28 6 7 7 6 8 2 9 3 10 29 11 4 12 5 13
REMARK SMILES IDX 1 14 12 15 13 16 14 17 15 19 16 20 26 21 17 22 19 23 18 24
REMARK SMILES IDX 20 25 21 26 25 27 22 28 23 29 24 30
REMARK H PARENT 14 18 25 31
ROOT
ATOM      1  C   UNL     1       0.027  43.695  54.020  1.00  0.00     0.145 A 
ATOM      2  C   UNL     1       0.661  44.883  54.418  1.00  0.00     0.051 A 
ATOM      3  C   UNL     1       1.992  45.115  54.067  1.00  0.00     0.038 A 
ATOM      4  C   UNL     1       2.685  44.160  53.305  1.00  0.00     0.128 A 
ATOM      5  N   UNL     1       2.040  43.025  52.918  1.00  0.00    -0.247 NA
ATOM      6  C   UNL     1       0.744  42.779  53.247  1.00  0.00     0.159 A 
ENDROOT
BRANCH   1   7
ATOM      7  O   UNL     1      -1.312  43.422  54.334  1.00  0.00    -0.456 OA
BRANCH   7   8
ATOM      8  C   UNL     1      -2.073  44.092  55.304  1.00  0.00     0.127 A 
ATOM      9  C   UNL     1      -3.386  46.005  56.058  1.00  0.00    -0.047 A 
ATOM     10  C   UNL     1      -3.537  45.395  57.313  1.00  0.00     0.003 A 
ATOM     11  C   UNL     1      -2.640  45.357  55.061  1.00  0.00     0.050 A 
ATOM     12  C   UNL     1      -2.959  44.149  57.563  1.00  0.00     0.004 A 
ATOM     13  C   UNL     1      -2.226  43.502  56.564  1.00  0.00     0.047 A 
ATOM     14  C   UNL     1      -3.969  47.361  55.789  1.00  0.00     0.044 C 
ENDBRANCH   7   8
ENDBRANCH   1   7
BRANCH   4  15
ATOM     15  C   UNL     1       4.098  44.369  52.921  1.00  0.00     0.274 C 
ATOM     16  O   UNL     1       5.006  44.247  53.788  1.00  0.00    -0.267 OA
ATOM     17  N   UNL     1       4.436  44.747  51.575  1.00  0.00    -0.321 N 
ATOM     18  H   UNL     1       3.686  45.156  50.973  1.00  0.00     0.170 HD
BRANCH  17  19
ATOM     19  C   UNL     1       5.772  44.711  51.043  1.00  0.00     0.041 A 
ATOM     20  C   UNL     1       6.151  43.763  50.075  1.00  0.00     0.026 A 
ATOM     21  C   UNL     1       6.702  45.677  51.453  1.00  0.00     0.032 A 
ATOM     22  C   UNL     1       7.447  43.766  49.555  1.00  0.00     0.003 A 
ATOM     23  C   UNL     1       8.013  45.679  50.942  1.00  0.00    -0.024 A 
ATOM     24  C   UNL     1       8.375  44.717  49.986  1.00  0.00     0.006 A 
BRANCH  23  25
ATOM     25  C   UNL     1       9.014  46.727  51.380  1.00  0.00     0.113 C 
ATOM     26  C   UNL     1       8.318  47.990  51.951  1.00  0.00     0.040 C 
ATOM     27  N   UNL     1       9.849  46.214  52.450  1.00  0.00    -0.349 N 
ATOM     28  C   UNL     1       8.716  48.101  53.432  1.00  0.00     0.102 C 
ATOM     29  C   UNL     1       9.681  46.998  53.610  1.00  0.00     0.220 C 
ATOM     30  O   UNL     1      10.282  46.756  54.689  1.00  0.00    -0.275 OA
ATOM     31  H   UNL     1      10.475  45.380  52.378  1.00  0.00     0.164 HD
ENDBRANCH  23  25
ENDBRANCH  17  19
ENDBRANCH   4  15
TORSDOF 5
ENDMDL
MODEL 3
REMARK VINA RESULT:    -8.990      2.559      9.647
REMARK INTER + INTRA:         -12.556
REMARK INTER:                 -11.554
REMARK INTRA:                  -1.002
REMARK UNBOUND:                -0.939
REMARK SMILES Cc1cccc(Oc2ccc(C(=O)Nc3cccc([C@H]4CCC(=O)N4)c3)nc2)c1
REMARK SMILES IDX 8 1 9 2 10 3 11 4 27 5 28 6 7 7 6 8 2 9 3 10 29 11 4 12 5 13
REMARK SMILES IDX 1 14 12 15 13 16 14 17 15 19 16 20 26 21 17 22 19 23 18 24
REMARK SMILES IDX 20 25 21 26 25 27 22 28 23 29 24 30
REMARK H PARENT 14 18 25 31
ROOT
ATOM      1  C   UNL     1       5.923  45.245  50.698  1.00  0.00     0.145 A 
ATOM      2  C   UNL     1       4.796  46.068  50.551  1.00  0.00     0.051 A 
ATOM      3  C   UNL     1       3.536  45.602  50.930  1.00  0.00     0.038 A 
ATOM      4  C   UNL     1       3.409  44.312  51.471  1.00  0.00     0.128 A 
ATOM      5  N   UNL     1       4.521  43.541  51.619  1.00  0.00    -0.247 NA
ATOM      6  C   UNL     1       5.758  43.975  51.257  1.00  0.00     0.159 A 
ENDROOT
BRANCH   1   7
ATOM      7  O   UNL     1       7.212  45.672  50.347  1.00  0.00    -0.456 OA
BRANCH   7   8
ATOM      8  C   UNL     1       8.232  46.006  51.250  1.00  0.00     0.127 A 
ATOM      9  C   UNL     1       9.030  47.109  53.275  1.00  0.00    -0.047 A 
ATOM     10  C   UNL     1      10.334  46.681  52.983  1.00  0.00     0.003 A 
ATOM     11  C   UNL     1       7.984  46.783  52.397  1.00  0.00     0.050 A 
ATOM     12  C   UNL     1      10.586  45.927  51.835  1.00  0.00     0.004 A 
ATOM     13  C   UNL     1       9.540  45.595  50.970  1.00  0.00     0.047 A 
ATOM     14  C   UNL     1       8.752  47.953  54.484  1.00  0.00     0.044 C 
ENDBRANCH   7   8
ENDBRANCH   1   7
BRANCH   4  15
ATOM     15  C   UNL     1       2.088  43.781  51.878  1.00  0.00     0.274 C 
ATOM     16  O   UNL     1       2.027  42.801  52.669  1.00  0.00    -0.267 OA
ATOM     17  N   UNL     1       0.881  44.353  51.346  1.00  0.00    -0.321 N 
ATOM     18  H   UNL     1       0.946  44.921  50.470  1.00  0.00     0.170 HD
BRANCH  17  19
ATOM     19  C   UNL     1      -0.431  44.093  51.874  1.00  0.00     0.041 A 
ATOM     20  C   UNL     1      -1.296  43.165  51.267  1.00  0.00     0.026 A 
ATOM     21  C   UNL     1      -0.838  44.734  53.054  1.00  0.00     0.032 A 
ATOM     22  C   UNL     1      -2.555  42.911  51.814  1.00  0.00     0.003 A 
ATOM     23  C   UNL     1      -2.109  44.491  53.605  1.00  0.00    -0.024 A 
ATOM     24  C   UNL     1      -2.962  43.570  52.976  1.00  0.00     0.006 A 
BRANCH  23  25
ATOM     25  C   UNL     1      -2.544  45.177  54.882  1.00  0.00     0.113 C 
ATOM     26  C   UNL     1      -3.135  44.174  55.907  1.00  0.00     0.040 C 
ATOM     27  N   UNL     1      -1.407  45.795  55.539  1.00  0.00    -0.349 N 
ATOM     28  C   UNL     1      -2.209  44.175  57.134  1.00  0.00     0.102 C 
ATOM     29  C   UNL     1      -1.223  45.226  56.816  1.00  0.00     0.220 C 
ATOM     30  O   UNL     1      -0.293  45.575  57.589  1.00  0.00    -0.275 OA
ATOM     31  H   UNL     1      -0.806  46.541  55.125  1.00  0.00     0.164 HD
ENDBRANCH  23  25
ENDBRANCH  17  19
ENDBRANCH   4  15
TORSDOF 5
ENDMDL
MODEL 4
REMARK VINA RESULT:    -8.575      3.929      5.198
REMARK INTER + INTRA:         -12.020
REMARK INTER:                 -11.214
REMARK INTRA:                  -0.806
REMARK UNBOUND:                -0.939
REMARK SMILES Cc1cccc(Oc2ccc(C(=O)Nc3cccc([C@H]4CCC(=O)N4)c3)nc2)c1
REMARK SMILES IDX 8 1 9 2 10 3 11 4 27 5 28 6 7 7 6 8 2 9 3 10 29 11 4 12 5 13
REMARK SMILES IDX 1 14 12 15 13 16 14 17 15 19 16 20 26 21 17 22 19 23 18 24
REMARK SMILES IDX 20 25 21 26 25 27 22 28 23 29 24 30
REMARK H PARENT 14 18 25 31
ROOT
ATOM      1  C   UNL     1       0.051  43.624  52.002  1.00  0.00     0.145 A 
ATOM      2  C   UNL     1       0.928  42.598  52.388  1.00  0.00     0.051 A 
ATOM      3  C   UNL     1       2.307  42.817  52.380  1.00  0.00     0.038 A 
ATOM      4  C   UNL     1       2.806  44.072  51.997  1.00  0.00     0.128 A 
ATOM      5  N   UNL     1       1.933  45.055  51.645  1.00  0.00    -0.247 NA
ATOM      6  C   UNL     1       0.587  44.864  51.646  1.00  0.00     0.159 A 
ENDROOT
BRANCH   1   7
ATOM      7  O   UNL     1      -1.342  43.459  52.008  1.00  0.00    -0.456 OA
BRANCH   7   8
ATOM      8  C   UNL     1      -2.079  42.740  51.056  1.00  0.00     0.127 A 
ATOM      9  C   UNL     1      -2.854  42.371  48.772  1.00  0.00    -0.047 A 
ATOM     10  C   UNL     1      -3.621  41.283  49.218  1.00  0.00     0.003 A 
ATOM     11  C   UNL     1      -2.096  43.107  49.697  1.00  0.00     0.050 A 
ATOM     12  C   UNL     1      -3.620  40.929  50.569  1.00  0.00     0.004 A 
ATOM     13  C   UNL     1      -2.855  41.657  51.484  1.00  0.00     0.047 A 
ATOM     14  C   UNL     1      -2.877  42.785  47.331  1.00  0.00     0.044 C 
ENDBRANCH   7   8
ENDBRANCH   1   7
BRANCH   4  15
ATOM     15  C   UNL     1       4.262  44.339  51.969  1.00  0.00     0.274 C 
ATOM     16  O   UNL     1       4.939  44.217  53.026  1.00  0.00    -0.267 OA
ATOM     17  N   UNL     1       4.896  44.774  50.755  1.00  0.00    -0.321 N 
ATOM     18  H   UNL     1       4.297  45.179  50.000  1.00  0.00     0.170 HD
BRANCH  17  19
ATOM     19  C   UNL     1       6.322  44.799  50.559  1.00  0.00     0.041 A 
ATOM     20  C   UNL     1       6.966  43.857  49.737  1.00  0.00     0.026 A 
ATOM     21  C   UNL     1       7.079  45.820  51.152  1.00  0.00     0.032 A 
ATOM     22  C   UNL     1       8.348  43.919  49.543  1.00  0.00     0.003 A 
ATOM     23  C   UNL     1       8.473  45.883  50.970  1.00  0.00    -0.024 A 
ATOM     24  C   UNL     1       9.099  44.925  50.156  1.00  0.00     0.006 A 
BRANCH  23  25
ATOM     25  C   UNL     1       9.288  46.988  51.604  1.00  0.00     0.113 C 
ATOM     26  C   UNL     1       8.389  48.095  52.215  1.00  0.00     0.040 C 
ATOM     27  N   UNL     1      10.081  46.468  52.703  1.00  0.00    -0.349 N 
ATOM     28  C   UNL     1       8.633  48.096  53.733  1.00  0.00     0.102 C 
ATOM     29  C   UNL     1       9.709  47.101  53.906  1.00  0.00     0.220 C 
ATOM     30  O   UNL     1      10.235  46.819  55.014  1.00  0.00    -0.275 OA
ATOM     31  H   UNL     1      10.811  45.725  52.619  1.00  0.00     0.164 HD
ENDBRANCH  23  25
ENDBRANCH  17  19
ENDBRANCH   4  15
TORSDOF 5
ENDMDL
MODEL 5
REMARK VINA RESULT:    -8.215      5.360     10.659
REMARK INTER + INTRA:         -11.555
REMARK INTER:                 -10.743
REMARK INTRA:                  -0.813
REMARK UNBOUND:                -0.939
REMARK SMILES Cc1cccc(Oc2ccc(C(=O)Nc3cccc([C@H]4CCC(=O)N4)c3)nc2)c1
REMARK SMILES IDX 8 1 9 2 10 3 11 4 27 5 28 6 7 7 6 8 2 9 3 10 29 11 4 12 5 13
REMARK SMILES IDX 1 14 12 15 13 16 14 17 15 19 16 20 26 21 17 22 19 23 18 24
REMARK SMILES IDX 20 25 21 26 25 27 22 28 23 29 24 30
REMARK H PARENT 14 18 25 31
ROOT
ATOM      1  C   UNL     1       4.346  40.653  46.012  1.00  0.00     0.145 A 
ATOM      2  C   UNL     1       5.397  41.579  46.089  1.00  0.00     0.051 A 
ATOM      3  C   UNL     1       5.780  42.100  47.327  1.00  0.00     0.038 A 
ATOM      4  C   UNL     1       5.117  41.681  48.490  1.00  0.00     0.128 A 
ATOM      5  N   UNL     1       4.112  40.768  48.389  1.00  0.00    -0.247 NA
ATOM      6  C   UNL     1       3.722  40.247  47.195  1.00  0.00     0.159 A 
ENDROOT
BRANCH   1   7
ATOM      7  O   UNL     1       3.933  40.090  44.796  1.00  0.00    -0.456 OA
BRANCH   7   8
ATOM      8  C   UNL     1       4.634  39.112  44.074  1.00  0.00     0.127 A 
ATOM      9  C   UNL     1       6.614  38.331  42.882  1.00  0.00    -0.047 A 
ATOM     10  C   UNL     1       5.953  37.128  42.590  1.00  0.00     0.003 A 
ATOM     11  C   UNL     1       5.945  39.327  43.611  1.00  0.00     0.050 A 
ATOM     12  C   UNL     1       4.644  36.920  43.032  1.00  0.00     0.004 A 
ATOM     13  C   UNL     1       3.986  37.910  43.767  1.00  0.00     0.047 A 
ATOM     14  C   UNL     1       8.005  38.582  42.380  1.00  0.00     0.044 C 
ENDBRANCH   7   8
ENDBRANCH   1   7
BRANCH   4  15
ATOM     15  C   UNL     1       5.491  42.216  49.819  1.00  0.00     0.274 C 
ATOM     16  O   UNL     1       6.463  41.711  50.444  1.00  0.00    -0.267 OA
ATOM     17  N   UNL     1       4.728  43.279  50.413  1.00  0.00    -0.321 N 
ATOM     18  H   UNL     1       3.762  43.457  50.054  1.00  0.00     0.170 HD
BRANCH  17  19
ATOM     19  C   UNL     1       5.162  44.037  51.556  1.00  0.00     0.041 A 
ATOM     20  C   UNL     1       4.682  43.758  52.848  1.00  0.00     0.026 A 
ATOM     21  C   UNL     1       6.130  45.040  51.390  1.00  0.00     0.032 A 
ATOM     22  C   UNL     1       5.139  44.492  53.944  1.00  0.00     0.003 A 
ATOM     23  C   UNL     1       6.587  45.790  52.488  1.00  0.00    -0.024 A 
ATOM     24  C   UNL     1       6.085  45.503  53.768  1.00  0.00     0.006 A 
BRANCH  23  25
ATOM     25  C   UNL     1       7.636  46.866  52.309  1.00  0.00     0.113 C 
ATOM     26  C   UNL     1       8.326  47.232  53.649  1.00  0.00     0.040 C 
ATOM     27  N   UNL     1       8.694  46.403  51.430  1.00  0.00    -0.349 N 
ATOM     28  C   UNL     1       9.808  46.847  53.521  1.00  0.00     0.102 C 
ATOM     29  C   UNL     1       9.924  46.396  52.120  1.00  0.00     0.220 C 
ATOM     30  O   UNL     1      11.000  46.021  51.588  1.00  0.00    -0.275 OA
ATOM     31  H   UNL     1       8.564  46.105  50.437  1.00  0.00     0.164 HD
ENDBRANCH  23  25
ENDBRANCH  17  19
ENDBRANCH   4  15
TORSDOF 5
ENDMDL
