ligand_30_conformer_3_docked
     RDKit          3D

 40 42  0  0  0  0  0  0  0  0999 V2000
    9.9350   47.2420   54.4560 C   0  0  0  0  0  0  0  0  0  0  0  0
    9.6520   47.4170   53.0730 O   0  0  0  0  0  0  0  0  0  0  0  0
    8.3650   47.6860   52.5920 C   0  0  0  0  0  0  0  0  0  0  0  0
    7.9640   48.8790   52.5130 O   0  0  0  0  0  0  0  0  0  0  0  0
    7.4750   46.5570   52.2140 C   0  0  0  0  0  0  0  0  0  0  0  0
    7.5420   46.0770   50.8930 C   0  0  0  0  0  0  0  0  0  0  0  0
    6.7510   45.0060   50.4770 C   0  0  0  0  0  0  0  0  0  0  0  0
    5.8820   44.3780   51.3740 C   0  0  0  0  0  0  0  0  0  0  0  0
    4.9930   43.2570   50.9120 C   0  0  0  0  0  0  0  0  0  0  0  0
    3.6360   43.4720   51.4000 N   0  0  0  0  0  0  0  0  0  0  0  0
    2.9770   42.7140   52.2910 C   0  0  0  0  0  0  0  0  0  0  0  0
    1.7920   43.3700   52.5410 C   0  0  0  0  0  0  0  0  0  0  0  0
    0.7650   42.9890   53.5570 C   0  0  0  0  0  0  0  0  0  0  0  0
    0.6710   44.0290   54.5760 N   0  0  0  0  0  0  0  0  0  0  0  0
   -0.4670   44.5480   55.0740 C   0  0  0  0  0  0  0  0  0  0  0  0
   -0.1350   45.4390   56.0710 C   0  0  0  0  0  0  0  0  0  0  0  0
    1.2460   45.4010   56.1310 C   0  0  0  0  0  0  0  0  0  0  0  0
    1.7150   44.5290   55.2170 N   0  0  0  0  0  0  0  0  0  0  0  0
    1.7750   44.5120   51.8260 N   0  0  0  0  0  0  0  0  0  0  0  0
    2.9090   44.5480   51.1410 N   0  0  0  0  0  0  0  0  0  0  0  0
    5.7840   44.8590   52.6870 C   0  0  0  0  0  0  0  0  0  0  0  0
    6.5620   45.9480   53.1190 C   0  0  0  0  0  0  0  0  0  0  0  0
    6.3810   46.4390   54.5330 C   0  0  0  0  0  0  0  0  0  0  0  0
    9.1504   47.7272   55.0551 H   0  0  0  0  0  0  0  0  0  0  0  0
    9.9644   46.1678   54.6912 H   0  0  0  0  0  0  0  0  0  0  0  0
   10.9091   47.6956   54.6912 H   0  0  0  0  0  0  0  0  0  0  0  0
    8.2284   46.5535   50.1776 H   0  0  0  0  0  0  0  0  0  0  0  0
    6.8114   44.6535   49.4368 H   0  0  0  0  0  0  0  0  0  0  0  0
    4.9854   43.2260   49.8125 H   0  0  0  0  0  0  0  0  0  0  0  0
    5.3748   42.3036   51.3062 H   0  0  0  0  0  0  0  0  0  0  0  0
    3.3143   41.7640   52.7310 H   0  0  0  0  0  0  0  0  0  0  0  0
   -0.2111   42.8713   53.0637 H   0  0  0  0  0  0  0  0  0  0  0  0
    1.0564   42.0401   54.0311 H   0  0  0  0  0  0  0  0  0  0  0  0
   -1.4866   44.3028   54.7420 H   0  0  0  0  0  0  0  0  0  0  0  0
   -0.8175   46.0463   56.6837 H   0  0  0  0  0  0  0  0  0  0  0  0
    1.8670   45.9925   56.8198 H   0  0  0  0  0  0  0  0  0  0  0  0
    5.0882   44.3775   53.3899 H   0  0  0  0  0  0  0  0  0  0  0  0
    6.6734   45.6458   55.2368 H   0  0  0  0  0  0  0  0  0  0  0  0
    7.0115   47.3254   54.6969 H   0  0  0  0  0  0  0  0  0  0  0  0
    5.3261   46.7040   54.6969 H   0  0  0  0  0  0  0  0  0  0  0  0
  1  2  1  0
  2  3  1  0
  3  4  2  0
  3  5  1  0
  5  6  2  0
  6  7  1  0
  7  8  2  0
  8  9  1  0
  9 10  1  0
 10 11  1  0
 11 12  2  0
 12 13  1  0
 13 14  1  0
 14 15  1  0
 15 16  2  0
 16 17  1  0
 17 18  2  0
 12 19  1  0
 19 20  2  0
  8 21  1  0
 21 22  2  0
 22 23  1  0
 22  5  1  0
 20 10  1  0
 18 14  1  0
  1 24  1  0
  1 25  1  0
  1 26  1  0
  6 27  1  0
  7 28  1  0
  9 29  1  0
  9 30  1  0
 11 31  1  0
 13 32  1  0
 13 33  1  0
 15 34  1  0
 16 35  1  0
 17 36  1  0
 21 37  1  0
 23 38  1  0
 23 39  1  0
 23 40  1  0
M  END
>  <meeko>  (1) 
{"is_sidechain": [false], "free_energy": -7.964, "intermolecular_energy": -10.757, "internal_energy": -0.579}

$$$$
ligand_30_conformer_3_docked
     RDKit          3D

 40 42  0  0  0  0  0  0  0  0999 V2000
   11.1350   47.4850   56.2490 C   0  0  0  0  0  0  0  0  0  0  0  0
   10.3070   46.9480   55.2240 O   0  0  0  0  0  0  0  0  0  0  0  0
    9.1710   47.6100   54.7440 C   0  0  0  0  0  0  0  0  0  0  0  0
    8.8080   48.6940   55.2770 O   0  0  0  0  0  0  0  0  0  0  0  0
    8.3880   47.0070   53.6350 C   0  0  0  0  0  0  0  0  0  0  0  0
    6.9880   46.9510   53.7670 C   0  0  0  0  0  0  0  0  0  0  0  0
    6.1910   46.4180   52.7540 C   0  0  0  0  0  0  0  0  0  0  0  0
    6.7710   45.9380   51.5760 C   0  0  0  0  0  0  0  0  0  0  0  0
    5.9160   45.3170   50.5060 C   0  0  0  0  0  0  0  0  0  0  0  0
    4.5790   45.0640   51.0320 N   0  0  0  0  0  0  0  0  0  0  0  0
    4.1770   43.9730   51.7040 C   0  0  0  0  0  0  0  0  0  0  0  0
    2.8870   44.2340   52.1100 C   0  0  0  0  0  0  0  0  0  0  0  0
    2.0460   43.3750   52.9970 C   0  0  0  0  0  0  0  0  0  0  0  0
    1.5660   44.1590   54.1300 N   0  0  0  0  0  0  0  0  0  0  0  0
    0.2800   44.3160   54.4950 C   0  0  0  0  0  0  0  0  0  0  0  0
    0.2480   45.0540   55.6570 C   0  0  0  0  0  0  0  0  0  0  0  0
    1.5750   45.3060   55.9510 C   0  0  0  0  0  0  0  0  0  0  0  0
    2.3610   44.7430   55.0120 N   0  0  0  0  0  0  0  0  0  0  0  0
    2.5520   45.4750   51.7040 N   0  0  0  0  0  0  0  0  0  0  0  0
    3.6010   45.9560   51.0500 N   0  0  0  0  0  0  0  0  0  0  0  0
    8.1660   45.9610   51.4380 C   0  0  0  0  0  0  0  0  0  0  0  0
    8.9860   46.4800   52.4560 C   0  0  0  0  0  0  0  0  0  0  0  0
   10.4800   46.4420   52.2590 C   0  0  0  0  0  0  0  0  0  0  0  0
   10.7216   47.2169   57.2324 H   0  0  0  0  0  0  0  0  0  0  0  0
   12.1505   47.0731   56.1535 H   0  0  0  0  0  0  0  0  0  0  0  0
   11.1731   48.5802   56.1535 H   0  0  0  0  0  0  0  0  0  0  0  0
    6.5149   47.3336   54.6834 H   0  0  0  0  0  0  0  0  0  0  0  0
    5.0994   46.3751   52.8828 H   0  0  0  0  0  0  0  0  0  0  0  0
    5.8481   46.0023   49.6483 H   0  0  0  0  0  0  0  0  0  0  0  0
    6.3672   44.3669   50.1840 H   0  0  0  0  0  0  0  0  0  0  0  0
    4.7587   43.0584   51.8917 H   0  0  0  0  0  0  0  0  0  0  0  0
    1.1866   42.9921   52.4271 H   0  0  0  0  0  0  0  0  0  0  0  0
    2.6493   42.5327   53.3665 H   0  0  0  0  0  0  0  0  0  0  0  0
   -0.5952   43.9223   53.9573 H   0  0  0  0  0  0  0  0  0  0  0  0
   -0.6380   45.3727   56.2258 H   0  0  0  0  0  0  0  0  0  0  0  0
    1.9345   45.8785   56.8187 H   0  0  0  0  0  0  0  0  0  0  0  0
    8.6261   45.5672   50.5197 H   0  0  0  0  0  0  0  0  0  0  0  0
   10.9789   46.4293   53.2393 H   0  0  0  0  0  0  0  0  0  0  0  0
   10.7528   45.5366   51.6970 H   0  0  0  0  0  0  0  0  0  0  0  0
   10.7985   47.3323   51.6970 H   0  0  0  0  0  0  0  0  0  0  0  0
  1  2  1  0
  2  3  1  0
  3  4  2  0
  3  5  1  0
  5  6  2  0
  6  7  1  0
  7  8  2  0
  8  9  1  0
  9 10  1  0
 10 11  1  0
 11 12  2  0
 12 13  1  0
 13 14  1  0
 14 15  1  0
 15 16  2  0
 16 17  1  0
 17 18  2  0
 12 19  1  0
 19 20  2  0
  8 21  1  0
 21 22  2  0
 22 23  1  0
 22  5  1  0
 20 10  1  0
 18 14  1  0
  1 24  1  0
  1 25  1  0
  1 26  1  0
  6 27  1  0
  7 28  1  0
  9 29  1  0
  9 30  1  0
 11 31  1  0
 13 32  1  0
 13 33  1  0
 15 34  1  0
 16 35  1  0
 17 36  1  0
 21 37  1  0
 23 38  1  0
 23 39  1  0
 23 40  1  0
M  END
>  <meeko>  (2) 
{"is_sidechain": [false], "free_energy": -7.744, "intermolecular_energy": -11.089, "internal_energy": 0.05}

$$$$
ligand_30_conformer_3_docked
     RDKit          3D

 40 42  0  0  0  0  0  0  0  0999 V2000
    5.6440   41.8350   47.0010 C   0  0  0  0  0  0  0  0  0  0  0  0
    5.2210   41.2340   48.2190 O   0  0  0  0  0  0  0  0  0  0  0  0
    5.8850   41.4370   49.4340 C   0  0  0  0  0  0  0  0  0  0  0  0
    6.9710   40.8370   49.6600 O   0  0  0  0  0  0  0  0  0  0  0  0
    5.2820   42.3310   50.4570 C   0  0  0  0  0  0  0  0  0  0  0  0
    4.2050   41.8370   51.2150 C   0  0  0  0  0  0  0  0  0  0  0  0
    3.6070   42.6150   52.2060 C   0  0  0  0  0  0  0  0  0  0  0  0
    4.0780   43.9040   52.4730 C   0  0  0  0  0  0  0  0  0  0  0  0
    3.4000   44.7610   53.5070 C   0  0  0  0  0  0  0  0  0  0  0  0
    4.3280   45.7780   53.9870 N   0  0  0  0  0  0  0  0  0  0  0  0
    5.6230   45.5980   54.2950 C   0  0  0  0  0  0  0  0  0  0  0  0
    6.1220   46.8500   54.5730 C   0  0  0  0  0  0  0  0  0  0  0  0
    7.5490   47.1940   54.8510 C   0  0  0  0  0  0  0  0  0  0  0  0
    8.3200   47.1370   53.6140 N   0  0  0  0  0  0  0  0  0  0  0  0
    9.4010   46.3660   53.3900 C   0  0  0  0  0  0  0  0  0  0  0  0
    9.7880   46.5350   52.0790 C   0  0  0  0  0  0  0  0  0  0  0  0
    8.8740   47.4300   51.5550 C   0  0  0  0  0  0  0  0  0  0  0  0
    7.9840   47.7760   52.5050 N   0  0  0  0  0  0  0  0  0  0  0  0
    5.1370   47.7530   54.4010 N   0  0  0  0  0  0  0  0  0  0  0  0
    4.0560   47.0730   54.0450 N   0  0  0  0  0  0  0  0  0  0  0  0
    5.1320   44.4230   51.7100 C   0  0  0  0  0  0  0  0  0  0  0  0
    5.7370   43.6580   50.6960 C   0  0  0  0  0  0  0  0  0  0  0  0
    6.8420   44.2890   49.8880 C   0  0  0  0  0  0  0  0  0  0  0  0
    6.2641   42.7160   47.2229 H   0  0  0  0  0  0  0  0  0  0  0  0
    6.2320   41.1099   46.4192 H   0  0  0  0  0  0  0  0  0  0  0  0
    4.7630   42.1438   46.4192 H   0  0  0  0  0  0  0  0  0  0  0  0
    3.8286   40.8214   51.0232 H   0  0  0  0  0  0  0  0  0  0  0  0
    2.7600   42.2122   52.7808 H   0  0  0  0  0  0  0  0  0  0  0  0
    2.5221   45.2493   53.0588 H   0  0  0  0  0  0  0  0  0  0  0  0
    3.0815   44.1310   54.3506 H   0  0  0  0  0  0  0  0  0  0  0  0
    6.1721   44.6452   54.3199 H   0  0  0  0  0  0  0  0  0  0  0  0
    7.6051   48.2095   55.2700 H   0  0  0  0  0  0  0  0  0  0  0  0
    7.9632   46.4730   55.5712 H   0  0  0  0  0  0  0  0  0  0  0  0
    9.8909   45.7132   54.1275 H   0  0  0  0  0  0  0  0  0  0  0  0
   10.6367   46.0623   51.5630 H   0  0  0  0  0  0  0  0  0  0  0  0
    8.8736   47.8028   50.5201 H   0  0  0  0  0  0  0  0  0  0  0  0
    5.4919   45.4437   51.9066 H   0  0  0  0  0  0  0  0  0  0  0  0
    7.5936   44.7182   50.5670 H   0  0  0  0  0  0  0  0  0  0  0  0
    7.3148   43.5247   49.2537 H   0  0  0  0  0  0  0  0  0  0  0  0
    6.4240   45.0846   49.2537 H   0  0  0  0  0  0  0  0  0  0  0  0
  1  2  1  0
  2  3  1  0
  3  4  2  0
  3  5  1  0
  5  6  2  0
  6  7  1  0
  7  8  2  0
  8  9  1  0
  9 10  1  0
 10 11  1  0
 11 12  2  0
 12 13  1  0
 13 14  1  0
 14 15  1  0
 15 16  2  0
 16 17  1  0
 17 18  2  0
 12 19  1  0
 19 20  2  0
  8 21  1  0
 21 22  2  0
 22 23  1  0
 22  5  1  0
 20 10  1  0
 18 14  1  0
  1 24  1  0
  1 25  1  0
  1 26  1  0
  6 27  1  0
  7 28  1  0
  9 29  1  0
  9 30  1  0
 11 31  1  0
 13 32  1  0
 13 33  1  0
 15 34  1  0
 16 35  1  0
 17 36  1  0
 21 37  1  0
 23 38  1  0
 23 39  1  0
 23 40  1  0
M  END
>  <meeko>  (3) 
{"is_sidechain": [false], "free_energy": -7.739, "intermolecular_energy": -10.803, "internal_energy": -0.231}

$$$$
ligand_30_conformer_3_docked
     RDKit          3D

 40 42  0  0  0  0  0  0  0  0999 V2000
    9.8850   47.1200   54.4640 C   0  0  0  0  0  0  0  0  0  0  0  0
    9.1370   46.2430   53.6300 O   0  0  0  0  0  0  0  0  0  0  0  0
    8.7180   46.5980   52.3420 C   0  0  0  0  0  0  0  0  0  0  0  0
    9.5380   47.1250   51.5420 O   0  0  0  0  0  0  0  0  0  0  0  0
    7.3020   46.3790   51.9490 C   0  0  0  0  0  0  0  0  0  0  0  0
    6.3000   47.0090   52.7080 C   0  0  0  0  0  0  0  0  0  0  0  0
    4.9520   46.8640   52.3810 C   0  0  0  0  0  0  0  0  0  0  0  0
    4.5710   46.0950   51.2770 C   0  0  0  0  0  0  0  0  0  0  0  0
    3.1150   45.8970   50.9550 C   0  0  0  0  0  0  0  0  0  0  0  0
    2.4860   45.0960   51.9990 N   0  0  0  0  0  0  0  0  0  0  0  0
    1.3660   45.4010   52.6750 C   0  0  0  0  0  0  0  0  0  0  0  0
    1.0860   44.3010   53.4550 C   0  0  0  0  0  0  0  0  0  0  0  0
   -0.1290   44.1000   54.3010 C   0  0  0  0  0  0  0  0  0  0  0  0
   -0.0070   44.8760   55.5300 N   0  0  0  0  0  0  0  0  0  0  0  0
    1.1300   45.0940   56.2180 C   0  0  0  0  0  0  0  0  0  0  0  0
    0.8430   45.9380   57.2680 C   0  0  0  0  0  0  0  0  0  0  0  0
   -0.5070   46.2040   57.1480 C   0  0  0  0  0  0  0  0  0  0  0  0
   -1.0030   45.5530   56.0770 N   0  0  0  0  0  0  0  0  0  0  0  0
    2.0150   43.3550   53.2130 N   0  0  0  0  0  0  0  0  0  0  0  0
    2.8540   43.8660   52.3230 N   0  0  0  0  0  0  0  0  0  0  0  0
    5.5540   45.4380   50.5240 C   0  0  0  0  0  0  0  0  0  0  0  0
    6.9170   45.5610   50.8500 C   0  0  0  0  0  0  0  0  0  0  0  0
    7.9200   44.7990   50.0220 C   0  0  0  0  0  0  0  0  0  0  0  0
    9.6833   46.8835   55.5192 H   0  0  0  0  0  0  0  0  0  0  0  0
   10.9584   46.9945   54.2588 H   0  0  0  0  0  0  0  0  0  0  0  0
    9.5917   48.1601   54.2588 H   0  0  0  0  0  0  0  0  0  0  0  0
    6.5838   47.6260   53.5733 H   0  0  0  0  0  0  0  0  0  0  0  0
    4.1842   47.3574   52.9950 H   0  0  0  0  0  0  0  0  0  0  0  0
    2.6172   46.8761   50.8952 H   0  0  0  0  0  0  0  0  0  0  0  0
    3.0224   45.3764   49.9904 H   0  0  0  0  0  0  0  0  0  0  0  0
    0.7908   46.3368   52.6174 H   0  0  0  0  0  0  0  0  0  0  0  0
   -1.0194   44.4312   53.7465 H   0  0  0  0  0  0  0  0  0  0  0  0
   -0.2253   43.0334   54.5521 H   0  0  0  0  0  0  0  0  0  0  0  0
    2.1176   44.6710   55.9821 H   0  0  0  0  0  0  0  0  0  0  0  0
    1.5362   46.3167   58.0335 H   0  0  0  0  0  0  0  0  0  0  0  0
   -1.0886   46.8487   57.8234 H   0  0  0  0  0  0  0  0  0  0  0  0
    5.2555   44.8175   49.6661 H   0  0  0  0  0  0  0  0  0  0  0  0
    8.6176   44.2690   50.6872 H   0  0  0  0  0  0  0  0  0  0  0  0
    7.3938   44.0708   49.3873 H   0  0  0  0  0  0  0  0  0  0  0  0
    8.4805   45.5011   49.3873 H   0  0  0  0  0  0  0  0  0  0  0  0
  1  2  1  0
  2  3  1  0
  3  4  2  0
  3  5  1  0
  5  6  2  0
  6  7  1  0
  7  8  2  0
  8  9  1  0
  9 10  1  0
 10 11  1  0
 11 12  2  0
 12 13  1  0
 13 14  1  0
 14 15  1  0
 15 16  2  0
 16 17  1  0
 17 18  2  0
 12 19  1  0
 19 20  2  0
  8 21  1  0
 21 22  2  0
 22 23  1  0
 22  5  1  0
 20 10  1  0
 18 14  1  0
  1 24  1  0
  1 25  1  0
  1 26  1  0
  6 27  1  0
  7 28  1  0
  9 29  1  0
  9 30  1  0
 11 31  1  0
 13 32  1  0
 13 33  1  0
 15 34  1  0
 16 35  1  0
 17 36  1  0
 21 37  1  0
 23 38  1  0
 23 39  1  0
 23 40  1  0
M  END
>  <meeko>  (4) 
{"is_sidechain": [false], "free_energy": -7.534, "intermolecular_energy": -10.267, "internal_energy": -0.488}

$$$$
ligand_30_conformer_3_docked
     RDKit          3D

 40 42  0  0  0  0  0  0  0  0999 V2000
    9.9210   46.9130   53.8660 C   0  0  0  0  0  0  0  0  0  0  0  0
    9.4260   47.3340   52.6010 O   0  0  0  0  0  0  0  0  0  0  0  0
    8.0680   47.5780   52.3620 C   0  0  0  0  0  0  0  0  0  0  0  0
    7.6370   48.7630   52.3650 O   0  0  0  0  0  0  0  0  0  0  0  0
    7.1480   46.4320   52.1410 C   0  0  0  0  0  0  0  0  0  0  0  0
    7.0530   45.9010   50.8420 C   0  0  0  0  0  0  0  0  0  0  0  0
    6.2250   44.8120   50.5700 C   0  0  0  0  0  0  0  0  0  0  0  0
    5.4800   44.2170   51.5920 C   0  0  0  0  0  0  0  0  0  0  0  0
    4.5490   43.0760   51.2880 C   0  0  0  0  0  0  0  0  0  0  0  0
    3.1850   43.4450   51.6480 N   0  0  0  0  0  0  0  0  0  0  0  0
    2.4190   42.8620   52.5840 C   0  0  0  0  0  0  0  0  0  0  0  0
    1.2730   43.6230   52.6620 C   0  0  0  0  0  0  0  0  0  0  0  0
    0.1610   43.4540   53.6450 C   0  0  0  0  0  0  0  0  0  0  0  0
   -1.0820   43.1670   52.9380 N   0  0  0  0  0  0  0  0  0  0  0  0
   -2.1180   44.0140   52.7840 C   0  0  0  0  0  0  0  0  0  0  0  0
   -3.0610   43.4010   51.9890 C   0  0  0  0  0  0  0  0  0  0  0  0
   -2.5170   42.1680   51.6840 C   0  0  0  0  0  0  0  0  0  0  0  0
   -1.3070   42.0510   52.2660 N   0  0  0  0  0  0  0  0  0  0  0  0
    1.3840   44.6540   51.8010 N   0  0  0  0  0  0  0  0  0  0  0  0
    2.5570   44.5210   51.1970 N   0  0  0  0  0  0  0  0  0  0  0  0
    5.5420   44.7490   52.8870 C   0  0  0  0  0  0  0  0  0  0  0  0
    6.3590   45.8570   53.1770 C   0  0  0  0  0  0  0  0  0  0  0  0
    6.3520   46.4020   54.5810 C   0  0  0  0  0  0  0  0  0  0  0  0
    9.3459   47.4021   54.6660 H   0  0  0  0  0  0  0  0  0  0  0  0
    9.8181   45.8215   53.9552 H   0  0  0  0  0  0  0  0  0  0  0  0
   10.9819   47.1898   53.9552 H   0  0  0  0  0  0  0  0  0  0  0  0
    7.6405   46.3513   50.0284 H   0  0  0  0  0  0  0  0  0  0  0  0
    6.1579   44.4190   49.5448 H   0  0  0  0  0  0  0  0  0  0  0  0
    4.5935   42.8441   50.2136 H   0  0  0  0  0  0  0  0  0  0  0  0
    4.8529   42.1931   51.8695 H   0  0  0  0  0  0  0  0  0  0  0  0
    2.6575   41.9613   53.1688 H   0  0  0  0  0  0  0  0  0  0  0  0
    0.3964   42.6207   54.3234 H   0  0  0  0  0  0  0  0  0  0  0  0
    0.0440   44.3813   54.2250 H   0  0  0  0  0  0  0  0  0  0  0  0
   -2.1972   45.0215   53.2183 H   0  0  0  0  0  0  0  0  0  0  0  0
   -4.0328   43.8041   51.6678 H   0  0  0  0  0  0  0  0  0  0  0  0
   -2.9980   41.3993   51.0613 H   0  0  0  0  0  0  0  0  0  0  0  0
    4.9427   44.2933   53.6890 H   0  0  0  0  0  0  0  0  0  0  0  0
    6.3627   45.5680   55.2981 H   0  0  0  0  0  0  0  0  0  0  0  0
    7.2422   47.0296   54.7352 H   0  0  0  0  0  0  0  0  0  0  0  0
    5.4460   47.0065   54.7352 H   0  0  0  0  0  0  0  0  0  0  0  0
  1  2  1  0
  2  3  1  0
  3  4  2  0
  3  5  1  0
  5  6  2  0
  6  7  1  0
  7  8  2  0
  8  9  1  0
  9 10  1  0
 10 11  1  0
 11 12  2  0
 12 13  1  0
 13 14  1  0
 14 15  1  0
 15 16  2  0
 16 17  1  0
 17 18  2  0
 12 19  1  0
 19 20  2  0
  8 21  1  0
 21 22  2  0
 22 23  1  0
 22  5  1  0
 20 10  1  0
 18 14  1  0
  1 24  1  0
  1 25  1  0
  1 26  1  0
  6 27  1  0
  7 28  1  0
  9 29  1  0
  9 30  1  0
 11 31  1  0
 13 32  1  0
 13 33  1  0
 15 34  1  0
 16 35  1  0
 17 36  1  0
 21 37  1  0
 23 38  1  0
 23 39  1  0
 23 40  1  0
M  END
>  <meeko>  (5) 
{"is_sidechain": [false], "free_energy": -7.377, "intermolecular_energy": -9.886, "internal_energy": -0.658}

$$$$
