ligand_57_conformer_3_docked
     RDKit          3D

 45 49  0  0  0  0  0  0  0  0999 V2000
    2.8070   48.0350   52.3250 O   0  0  0  0  0  0  0  0  0  0  0  0
    2.4020   46.7230   52.5960 C   0  0  0  0  0  0  0  0  0  0  0  0
    3.0540   45.7710   51.5830 C   0  0  0  0  0  0  0  0  0  0  0  0
    4.4250   45.2110   52.0220 C   0  0  2  0  0  0  0  0  0  0  0  0
    5.6260   46.0850   51.5590 C   0  0  0  0  0  0  0  0  0  0  0  0
    6.4340   45.2280   50.6890 N   0  0  0  0  0  0  0  0  0  0  0  0
    7.7090   45.6310   50.0930 C   0  0  0  0  0  0  0  0  0  0  0  0
    8.7280   45.9900   51.1780 C   0  0  2  0  0  0  0  0  0  0  0  0
    8.9430   47.4470   51.5660 C   0  0  0  0  0  0  0  0  0  0  0  0
    9.4510   46.7250   52.7970 C   0  0  2  0  0  0  0  0  0  0  0  0
    9.5750   47.4420   54.1050 C   0  0  0  0  0  0  0  0  0  0  0  0
   10.4440   47.0980   55.0760 N   0  0  0  0  0  0  0  0  0  0  0  0
   10.1870   47.9320   56.0690 N   0  0  0  0  0  0  0  0  0  0  0  0
    9.2000   48.7370   55.7150 N   0  0  0  0  0  0  0  0  0  0  0  0
    8.7820   48.4580   54.4930 N   0  0  0  0  0  0  0  0  0  0  0  0
   10.6390   45.9950   52.1890 C   0  0  0  0  0  0  0  0  0  0  0  0
   10.0380   45.4780   51.0090 O   0  0  0  0  0  0  0  0  0  0  0  0
    8.3890   45.6590   52.6240 C   0  0  0  0  0  0  0  0  0  0  0  0
    5.8610   43.9300   50.6640 C   0  0  0  0  0  0  0  0  0  0  0  0
    6.3280   42.8090   49.9680 C   0  0  0  0  0  0  0  0  0  0  0  0
    5.6160   41.6040   50.0860 C   0  0  0  0  0  0  0  0  0  0  0  0
    4.4590   41.5400   50.8870 C   0  0  0  0  0  0  0  0  0  0  0  0
    4.0040   42.6830   51.5630 C   0  0  0  0  0  0  0  0  0  0  0  0
    4.7240   43.8720   51.4250 C   0  0  0  0  0  0  0  0  0  0  0  0
    3.7860   48.0610   52.4890 H   0  0  0  0  0  0  0  0  0  0  0  0
    2.7129   46.4453   53.6140 H   0  0  0  0  0  0  0  0  0  0  0  0
    1.3072   46.6516   52.5169 H   0  0  0  0  0  0  0  0  0  0  0  0
    2.3725   44.9230   51.4203 H   0  0  0  0  0  0  0  0  0  0  0  0
    3.2334   46.3592   50.6710 H   0  0  0  0  0  0  0  0  0  0  0  0
    4.3310   45.1782   53.1175 H   0  0  0  0  0  0  0  0  0  0  0  0
    5.2677   46.9645   51.0039 H   0  0  0  0  0  0  0  0  0  0  0  0
    6.2091   46.4562   52.4147 H   0  0  0  0  0  0  0  0  0  0  0  0
    8.1031   44.8004   49.4890 H   0  0  0  0  0  0  0  0  0  0  0  0
    7.5390   46.5163   49.4627 H   0  0  0  0  0  0  0  0  0  0  0  0
    9.6876   48.0073   50.9816 H   0  0  0  0  0  0  0  0  0  0  0  0
    8.1885   48.2472   51.5430 H   0  0  0  0  0  0  0  0  0  0  0  0
    8.8010   49.4880   56.3210 H   0  0  0  0  0  0  0  0  0  0  0  0
   11.4654   46.6832   51.9577 H   0  0  0  0  0  0  0  0  0  0  0  0
   11.1000   45.2392   52.8418 H   0  0  0  0  0  0  0  0  0  0  0  0
    8.6463   44.6472   52.9706 H   0  0  0  0  0  0  0  0  0  0  0  0
    7.3859   45.6577   53.0754 H   0  0  0  0  0  0  0  0  0  0  0  0
    7.2313   42.8703   49.3433 H   0  0  0  0  0  0  0  0  0  0  0  0
    5.9630   40.7075   49.5513 H   0  0  0  0  0  0  0  0  0  0  0  0
    3.9104   40.5914   50.9830 H   0  0  0  0  0  0  0  0  0  0  0  0
    3.0997   42.6432   52.1881 H   0  0  0  0  0  0  0  0  0  0  0  0
  1  2  1  0
  2  3  1  0
  3  4  1  0
  4  5  1  0
  5  6  1  0
  6  7  1  0
  8  7  1  6
  8  9  1  0
  9 10  1  0
 10 11  1  1
 11 12  1  0
 12 13  2  0
 13 14  1  0
 14 15  1  0
 10 16  1  0
 16 17  1  0
 10 18  1  0
  6 19  1  0
 19 20  2  0
 20 21  1  0
 21 22  2  0
 22 23  1  0
 23 24  2  0
 24  4  1  0
 17  8  1  0
 24 19  1  0
 18  8  1  0
 15 11  2  0
  1 25  1  0
  2 26  1  0
  2 27  1  0
  3 28  1  0
  3 29  1  0
  4 30  1  1
  5 31  1  0
  5 32  1  0
  7 33  1  0
  7 34  1  0
  9 35  1  0
  9 36  1  0
 14 37  1  0
 16 38  1  0
 16 39  1  0
 18 40  1  0
 18 41  1  0
 20 42  1  0
 21 43  1  0
 22 44  1  0
 23 45  1  0
M  END
>  <meeko>  (1) 
{"is_sidechain": [false], "free_energy": -9.585, "intermolecular_energy": -12.667, "internal_energy": 0.039}

$$$$
ligand_57_conformer_3_docked
     RDKit          3D

 45 49  0  0  0  0  0  0  0  0999 V2000
    1.1940   41.9190   53.7680 O   0  0  0  0  0  0  0  0  0  0  0  0
    1.5850   43.1360   53.1960 C   0  0  0  0  0  0  0  0  0  0  0  0
    2.5540   42.8650   52.0370 C   0  0  0  0  0  0  0  0  0  0  0  0
    4.0280   43.2170   52.3390 C   0  0  2  0  0  0  0  0  0  0  0  0
    4.2710   44.7420   52.5340 C   0  0  0  0  0  0  0  0  0  0  0  0
    5.2100   45.1360   51.4830 N   0  0  0  0  0  0  0  0  0  0  0  0
    5.7730   46.4800   51.3450 C   0  0  0  0  0  0  0  0  0  0  0  0
    7.1700   46.5520   51.9670 C   0  0  2  0  0  0  0  0  0  0  0  0
    7.7600   47.9010   52.3580 C   0  0  0  0  0  0  0  0  0  0  0  0
    8.5630   46.9530   53.2250 C   0  0  2  0  0  0  0  0  0  0  0  0
    9.2900   47.4560   54.4330 C   0  0  0  0  0  0  0  0  0  0  0  0
   10.3430   46.8310   54.9960 N   0  0  0  0  0  0  0  0  0  0  0  0
   10.6400   47.5600   56.0580 N   0  0  0  0  0  0  0  0  0  0  0  0
    9.7950   48.5740   56.1370 N   0  0  0  0  0  0  0  0  0  0  0  0
    8.9280   48.5410   55.1420 N   0  0  0  0  0  0  0  0  0  0  0  0
    9.2930   46.1750   52.1410 C   0  0  0  0  0  0  0  0  0  0  0  0
    8.2130   45.9110   51.2540 O   0  0  0  0  0  0  0  0  0  0  0  0
    7.3490   46.0640   53.3970 C   0  0  0  0  0  0  0  0  0  0  0  0
    5.5890   43.9810   50.7500 C   0  0  0  0  0  0  0  0  0  0  0  0
    6.4790   43.9140   49.6720 C   0  0  0  0  0  0  0  0  0  0  0  0
    6.7290   42.6610   49.0880 C   0  0  0  0  0  0  0  0  0  0  0  0
    6.0890   41.5090   49.5830 C   0  0  0  0  0  0  0  0  0  0  0  0
    5.1900   41.6060   50.6560 C   0  0  0  0  0  0  0  0  0  0  0  0
    4.9520   42.8640   51.2160 C   0  0  0  0  0  0  0  0  0  0  0  0
    0.5240   41.5260   53.1490 H   0  0  0  0  0  0  0  0  0  0  0  0
    0.6983   43.6654   52.8172 H   0  0  0  0  0  0  0  0  0  0  0  0
    2.0838   43.7561   53.9554 H   0  0  0  0  0  0  0  0  0  0  0  0
    2.5004   41.7951   51.7873 H   0  0  0  0  0  0  0  0  0  0  0  0
    2.2402   43.5162   51.2079 H   0  0  0  0  0  0  0  0  0  0  0  0
    4.2292   42.6413   53.2544 H   0  0  0  0  0  0  0  0  0  0  0  0
    3.3265   45.2963   52.4307 H   0  0  0  0  0  0  0  0  0  0  0  0
    4.6695   44.9627   53.5352 H   0  0  0  0  0  0  0  0  0  0  0  0
    5.8404   46.7346   50.2770 H   0  0  0  0  0  0  0  0  0  0  0  0
    5.1175   47.1917   51.8683 H   0  0  0  0  0  0  0  0  0  0  0  0
    8.3135   48.4415   51.5761 H   0  0  0  0  0  0  0  0  0  0  0  0
    7.2006   48.7842   52.7003 H   0  0  0  0  0  0  0  0  0  0  0  0
    9.8090   49.3000   56.8880 H   0  0  0  0  0  0  0  0  0  0  0  0
   10.0761   46.7806   51.6614 H   0  0  0  0  0  0  0  0  0  0  0  0
    9.8301   45.2824   52.4943 H   0  0  0  0  0  0  0  0  0  0  0  0
    7.5411   44.9891   53.5297 H   0  0  0  0  0  0  0  0  0  0  0  0
    6.6052   46.1242   54.2051 H   0  0  0  0  0  0  0  0  0  0  0  0
    6.9711   44.8210   49.2910 H   0  0  0  0  0  0  0  0  0  0  0  0
    7.4268   42.5798   48.2416 H   0  0  0  0  0  0  0  0  0  0  0  0
    6.2944   40.5293   49.1270 H   0  0  0  0  0  0  0  0  0  0  0  0
    4.6837   40.7114   51.0477 H   0  0  0  0  0  0  0  0  0  0  0  0
  1  2  1  0
  2  3  1  0
  3  4  1  0
  4  5  1  0
  5  6  1  0
  6  7  1  0
  8  7  1  6
  8  9  1  0
  9 10  1  0
 10 11  1  1
 11 12  1  0
 12 13  2  0
 13 14  1  0
 14 15  1  0
 10 16  1  0
 16 17  1  0
 10 18  1  0
  6 19  1  0
 19 20  2  0
 20 21  1  0
 21 22  2  0
 22 23  1  0
 23 24  2  0
 24  4  1  0
 17  8  1  0
 24 19  1  0
 18  8  1  0
 15 11  2  0
  1 25  1  0
  2 26  1  0
  2 27  1  0
  3 28  1  0
  3 29  1  0
  4 30  1  1
  5 31  1  0
  5 32  1  0
  7 33  1  0
  7 34  1  0
  9 35  1  0
  9 36  1  0
 14 37  1  0
 16 38  1  0
 16 39  1  0
 18 40  1  0
 18 41  1  0
 20 42  1  0
 21 43  1  0
 22 44  1  0
 23 45  1  0
M  END
>  <meeko>  (2) 
{"is_sidechain": [false], "free_energy": -9.501, "intermolecular_energy": -12.531, "internal_energy": 0.014}

$$$$
ligand_57_conformer_3_docked
     RDKit          3D

 45 49  0  0  0  0  0  0  0  0999 V2000
   -0.0640   43.5290   50.3810 O   0  0  0  0  0  0  0  0  0  0  0  0
    0.7150   42.9870   51.4100 C   0  0  0  0  0  0  0  0  0  0  0  0
    2.0430   42.4820   50.8290 C   0  0  0  0  0  0  0  0  0  0  0  0
    3.2960   42.9260   51.6170 C   0  0  2  0  0  0  0  0  0  0  0  0
    3.3660   44.4630   51.8500 C   0  0  0  0  0  0  0  0  0  0  0  0
    4.5890   44.9140   51.1820 N   0  0  0  0  0  0  0  0  0  0  0  0
    5.0850   46.2900   51.2190 C   0  0  0  0  0  0  0  0  0  0  0  0
    5.7430   46.5970   52.5670 C   0  0  2  0  0  0  0  0  0  0  0  0
    6.8270   45.6760   53.1110 C   0  0  0  0  0  0  0  0  0  0  0  0
    7.1130   46.9610   53.8610 C   0  0  2  0  0  0  0  0  0  0  0  0
    8.4500   47.1930   54.4930 C   0  0  0  0  0  0  0  0  0  0  0  0
    8.7040   48.1690   55.3860 N   0  0  0  0  0  0  0  0  0  0  0  0
    9.9980   48.0660   55.6400 N   0  0  0  0  0  0  0  0  0  0  0  0
   10.5020   47.0770   54.9220 N   0  0  0  0  0  0  0  0  0  0  0  0
    9.5670   46.5080   54.1840 N   0  0  0  0  0  0  0  0  0  0  0  0
    5.8330   47.0680   54.6760 C   0  0  0  0  0  0  0  0  0  0  0  0
    4.8700   46.7940   53.6660 O   0  0  0  0  0  0  0  0  0  0  0  0
    6.7060   47.7720   52.6490 C   0  0  0  0  0  0  0  0  0  0  0  0
    5.2670   43.7840   50.6540 C   0  0  0  0  0  0  0  0  0  0  0  0
    6.4790   43.7710   49.9550 C   0  0  0  0  0  0  0  0  0  0  0  0
    6.9890   42.5370   49.5230 C   0  0  0  0  0  0  0  0  0  0  0  0
    6.2850   41.3470   49.7900 C   0  0  0  0  0  0  0  0  0  0  0  0
    5.0640   41.3880   50.4810 C   0  0  0  0  0  0  0  0  0  0  0  0
    4.5720   42.6290   50.8940 C   0  0  0  0  0  0  0  0  0  0  0  0
   -0.8880   42.9760   50.3370 H   0  0  0  0  0  0  0  0  0  0  0  0
    0.9152   43.7607   52.1658 H   0  0  0  0  0  0  0  0  0  0  0  0
    0.1760   42.1504   51.8785 H   0  0  0  0  0  0  0  0  0  0  0  0
    2.0167   41.3824   50.8163 H   0  0  0  0  0  0  0  0  0  0  0  0
    2.1327   42.9212   49.8245 H   0  0  0  0  0  0  0  0  0  0  0  0
    3.1990   42.3656   52.5586 H   0  0  0  0  0  0  0  0  0  0  0  0
    2.4862   44.9570   51.4120 H   0  0  0  0  0  0  0  0  0  0  0  0
    3.3765   44.7093   52.9220 H   0  0  0  0  0  0  0  0  0  0  0  0
    5.8253   46.4278   50.4171 H   0  0  0  0  0  0  0  0  0  0  0  0
    4.2351   46.9741   51.0786 H   0  0  0  0  0  0  0  0  0  0  0  0
    6.4889   44.8195   53.7128 H   0  0  0  0  0  0  0  0  0  0  0  0
    7.5461   45.0920   52.5178 H   0  0  0  0  0  0  0  0  0  0  0  0
   11.5060   46.7880   54.9340 H   0  0  0  0  0  0  0  0  0  0  0  0
    5.8003   46.3219   55.4836 H   0  0  0  0  0  0  0  0  0  0  0  0
    5.6959   48.0269   55.1973 H   0  0  0  0  0  0  0  0  0  0  0  0
    6.2620   48.7593   52.8441 H   0  0  0  0  0  0  0  0  0  0  0  0
    7.3712   48.1276   51.8484 H   0  0  0  0  0  0  0  0  0  0  0  0
    7.0197   44.7065   49.7488 H   0  0  0  0  0  0  0  0  0  0  0  0
    7.9415   42.4992   48.9742 H   0  0  0  0  0  0  0  0  0  0  0  0
    6.6935   40.3819   49.4558 H   0  0  0  0  0  0  0  0  0  0  0  0
    4.5066   40.4636   50.6928 H   0  0  0  0  0  0  0  0  0  0  0  0
  1  2  1  0
  2  3  1  0
  3  4  1  0
  4  5  1  0
  5  6  1  0
  6  7  1  0
  8  7  1  6
  8  9  1  0
  9 10  1  0
 10 11  1  1
 11 12  1  0
 12 13  2  0
 13 14  1  0
 14 15  1  0
 10 16  1  0
 16 17  1  0
 10 18  1  0
  6 19  1  0
 19 20  2  0
 20 21  1  0
 21 22  2  0
 22 23  1  0
 23 24  2  0
 24  4  1  0
 17  8  1  0
 24 19  1  0
 18  8  1  0
 15 11  2  0
  1 25  1  0
  2 26  1  0
  2 27  1  0
  3 28  1  0
  3 29  1  0
  4 30  1  1
  5 31  1  0
  5 32  1  0
  7 33  1  0
  7 34  1  0
  9 35  1  0
  9 36  1  0
 14 37  1  0
 16 38  1  0
 16 39  1  0
 18 40  1  0
 18 41  1  0
 20 42  1  0
 21 43  1  0
 22 44  1  0
 23 45  1  0
M  END
>  <meeko>  (3) 
{"is_sidechain": [false], "free_energy": -8.745, "intermolecular_energy": -11.183, "internal_energy": -0.335}

$$$$
ligand_57_conformer_3_docked
     RDKit          3D

 45 49  0  0  0  0  0  0  0  0999 V2000
    3.1710   42.2970   52.6590 O   0  0  0  0  0  0  0  0  0  0  0  0
    2.8920   42.6030   51.3210 C   0  0  0  0  0  0  0  0  0  0  0  0
    1.3870   42.8660   51.1650 C   0  0  0  0  0  0  0  0  0  0  0  0
    0.9480   44.3020   51.5280 C   0  0  2  0  0  0  0  0  0  0  0  0
    2.0900   45.3510   51.3900 C   0  0  0  0  0  0  0  0  0  0  0  0
    2.2840   45.9110   52.7290 N   0  0  0  0  0  0  0  0  0  0  0  0
    3.2160   46.9960   53.0380 C   0  0  0  0  0  0  0  0  0  0  0  0
    4.6020   46.4430   53.3800 C   0  0  2  0  0  0  0  0  0  0  0  0
    5.8070   46.8330   52.5350 C   0  0  0  0  0  0  0  0  0  0  0  0
    6.4680   46.4110   53.8310 C   0  0  2  0  0  0  0  0  0  0  0  0
    7.8630   46.8470   54.1530 C   0  0  0  0  0  0  0  0  0  0  0  0
    8.1670   47.7900   55.0660 N   0  0  0  0  0  0  0  0  0  0  0  0
    9.4820   47.9160   54.9950 N   0  0  0  0  0  0  0  0  0  0  0  0
    9.9470   47.0910   54.0720 N   0  0  0  0  0  0  0  0  0  0  0  0
    8.9630   46.4080   53.5140 N   0  0  0  0  0  0  0  0  0  0  0  0
    6.0860   44.9380   53.8400 C   0  0  0  0  0  0  0  0  0  0  0  0
    4.7070   45.0350   53.5060 O   0  0  0  0  0  0  0  0  0  0  0  0
    5.3050   46.9750   54.6200 C   0  0  0  0  0  0  0  0  0  0  0  0
    1.3230   45.3450   53.6070 C   0  0  0  0  0  0  0  0  0  0  0  0
    1.1520   45.6180   54.9690 C   0  0  0  0  0  0  0  0  0  0  0  0
    0.1260   44.9540   55.6610 C   0  0  0  0  0  0  0  0  0  0  0  0
   -0.7030   44.0360   54.9880 C   0  0  0  0  0  0  0  0  0  0  0  0
   -0.5020   43.7700   53.6250 C   0  0  0  0  0  0  0  0  0  0  0  0
    0.5300   44.4370   52.9590 C   0  0  0  0  0  0  0  0  0  0  0  0
    2.3970   41.7710   52.9900 H   0  0  0  0  0  0  0  0  0  0  0  0
    3.4548   43.5003   51.0240 H   0  0  0  0  0  0  0  0  0  0  0  0
    3.1875   41.7592   50.6801 H   0  0  0  0  0  0  0  0  0  0  0  0
    1.1117   42.6769   50.1169 H   0  0  0  0  0  0  0  0  0  0  0  0
    0.8766   42.1943   51.8709 H   0  0  0  0  0  0  0  0  0  0  0  0
    0.1243   44.4866   50.8227 H   0  0  0  0  0  0  0  0  0  0  0  0
    3.0138   44.8672   51.0400 H   0  0  0  0  0  0  0  0  0  0  0  0
    1.8350   46.1320   50.6585 H   0  0  0  0  0  0  0  0  0  0  0  0
    3.2983   47.6600   52.1649 H   0  0  0  0  0  0  0  0  0  0  0  0
    2.8341   47.5512   53.9074 H   0  0  0  0  0  0  0  0  0  0  0  0
    6.0117   46.2093   51.6523 H   0  0  0  0  0  0  0  0  0  0  0  0
    5.9534   47.7875   52.0082 H   0  0  0  0  0  0  0  0  0  0  0  0
   10.9550   46.9970   53.8140 H   0  0  0  0  0  0  0  0  0  0  0  0
    6.6485   44.3664   53.0871 H   0  0  0  0  0  0  0  0  0  0  0  0
    6.2971   44.4118   54.7826 H   0  0  0  0  0  0  0  0  0  0  0  0
    5.0683   46.4766   55.5716 H   0  0  0  0  0  0  0  0  0  0  0  0
    5.2263   47.9935   55.0281 H   0  0  0  0  0  0  0  0  0  0  0  0
    1.8060   46.3360   55.4855 H   0  0  0  0  0  0  0  0  0  0  0  0
   -0.0305   45.1516   56.7317 H   0  0  0  0  0  0  0  0  0  0  0  0
   -1.5110   43.5256   55.5327 H   0  0  0  0  0  0  0  0  0  0  0  0
   -1.1428   43.0520   53.0922 H   0  0  0  0  0  0  0  0  0  0  0  0
  1  2  1  0
  2  3  1  0
  3  4  1  0
  4  5  1  0
  5  6  1  0
  6  7  1  0
  8  7  1  6
  8  9  1  0
  9 10  1  0
 10 11  1  1
 11 12  1  0
 12 13  2  0
 13 14  1  0
 14 15  1  0
 10 16  1  0
 16 17  1  0
 10 18  1  0
  6 19  1  0
 19 20  2  0
 20 21  1  0
 21 22  2  0
 22 23  1  0
 23 24  2  0
 24  4  1  0
 17  8  1  0
 24 19  1  0
 18  8  1  0
 15 11  2  0
  1 25  1  0
  2 26  1  0
  2 27  1  0
  3 28  1  0
  3 29  1  0
  4 30  1  6
  5 31  1  0
  5 32  1  0
  7 33  1  0
  7 34  1  0
  9 35  1  0
  9 36  1  0
 14 37  1  0
 16 38  1  0
 16 39  1  0
 18 40  1  0
 18 41  1  0
 20 42  1  0
 21 43  1  0
 22 44  1  0
 23 45  1  0
M  END
>  <meeko>  (4) 
{"is_sidechain": [false], "free_energy": -8.343, "intermolecular_energy": -10.47, "internal_energy": -0.517}

$$$$
ligand_57_conformer_3_docked
     RDKit          3D

 45 49  0  0  0  0  0  0  0  0999 V2000
    8.0380   47.5710   54.9030 O   0  0  0  0  0  0  0  0  0  0  0  0
    7.2660   46.7060   54.1180 C   0  0  0  0  0  0  0  0  0  0  0  0
    7.8840   46.6050   52.7160 C   0  0  0  0  0  0  0  0  0  0  0  0
    6.8540   46.5480   51.5660 C   0  0  2  0  0  0  0  0  0  0  0  0
    5.3800   46.4850   52.0590 C   0  0  0  0  0  0  0  0  0  0  0  0
    4.8420   45.2190   51.5560 N   0  0  0  0  0  0  0  0  0  0  0  0
    3.4520   44.7930   51.7250 C   0  0  0  0  0  0  0  0  0  0  0  0
    3.0130   44.9310   53.1850 C   0  0  2  0  0  0  0  0  0  0  0  0
    2.0660   46.0520   53.5920 C   0  0  0  0  0  0  0  0  0  0  0  0
    1.8620   45.0570   54.7160 C   0  0  2  0  0  0  0  0  0  0  0  0
    0.6400   45.1200   55.5770 C   0  0  0  0  0  0  0  0  0  0  0  0
    0.6650   45.3000   56.9120 N   0  0  0  0  0  0  0  0  0  0  0  0
   -0.6020   45.2310   57.2860 N   0  0  0  0  0  0  0  0  0  0  0  0
   -1.3560   45.0090   56.2230 N   0  0  0  0  0  0  0  0  0  0  0  0
   -0.6160   44.9250   55.1320 N   0  0  0  0  0  0  0  0  0  0  0  0
    3.2530   45.0800   55.3290 C   0  0  0  0  0  0  0  0  0  0  0  0
    4.0470   44.9810   54.1530 O   0  0  0  0  0  0  0  0  0  0  0  0
    2.0360   43.9080   53.7450 C   0  0  0  0  0  0  0  0  0  0  0  0
    5.8320   44.5840   50.7620 C   0  0  0  0  0  0  0  0  0  0  0  0
    5.7220   43.3640   50.0840 C   0  0  0  0  0  0  0  0  0  0  0  0
    6.8230   42.9130   49.3380 C   0  0  0  0  0  0  0  0  0  0  0  0
    8.0050   43.6770   49.2850 C   0  0  0  0  0  0  0  0  0  0  0  0
    8.0930   44.8900   49.9850 C   0  0  0  0  0  0  0  0  0  0  0  0
    6.9880   45.3160   50.7270 C   0  0  0  0  0  0  0  0  0  0  0  0
    8.9460   47.1730   54.9420 H   0  0  0  0  0  0  0  0  0  0  0  0
    7.2442   45.7092   54.5826 H   0  0  0  0  0  0  0  0  0  0  0  0
    6.2400   47.0951   54.0412 H   0  0  0  0  0  0  0  0  0  0  0  0
    8.5262   47.4842   52.5592 H   0  0  0  0  0  0  0  0  0  0  0  0
    8.4400   45.6563   52.6861 H   0  0  0  0  0  0  0  0  0  0  0  0
    7.0676   47.4710   51.0070 H   0  0  0  0  0  0  0  0  0  0  0  0
    5.3430   46.5066   53.1582 H   0  0  0  0  0  0  0  0  0  0  0  0
    4.7961   47.3441   51.6970 H   0  0  0  0  0  0  0  0  0  0  0  0
    2.8041   45.4184   51.0933 H   0  0  0  0  0  0  0  0  0  0  0  0
    3.3697   43.7361   51.4312 H   0  0  0  0  0  0  0  0  0  0  0  0
    2.5281   47.0127   53.8629 H   0  0  0  0  0  0  0  0  0  0  0  0
    1.2801   46.5020   52.9675 H   0  0  0  0  0  0  0  0  0  0  0  0
   -2.3950   44.9080   56.2430 H   0  0  0  0  0  0  0  0  0  0  0  0
    3.4437   46.0175   55.8718 H   0  0  0  0  0  0  0  0  0  0  0  0
    3.4399   44.2978   56.0795 H   0  0  0  0  0  0  0  0  0  0  0  0
    2.4711   42.9827   54.1505 H   0  0  0  0  0  0  0  0  0  0  0  0
    1.2364   43.3968   53.1889 H   0  0  0  0  0  0  0  0  0  0  0  0
    4.7956   42.7730   50.1344 H   0  0  0  0  0  0  0  0  0  0  0  0
    6.7620   41.9594   48.7930 H   0  0  0  0  0  0  0  0  0  0  0  0
    8.8616   43.3219   48.6932 H   0  0  0  0  0  0  0  0  0  0  0  0
    9.0124   45.4929   49.9504 H   0  0  0  0  0  0  0  0  0  0  0  0
  1  2  1  0
  2  3  1  0
  3  4  1  0
  4  5  1  0
  5  6  1  0
  6  7  1  0
  8  7  1  6
  8  9  1  0
  9 10  1  0
 10 11  1  1
 11 12  1  0
 12 13  2  0
 13 14  1  0
 14 15  1  0
 10 16  1  0
 16 17  1  0
 10 18  1  0
  6 19  1  0
 19 20  2  0
 20 21  1  0
 21 22  2  0
 22 23  1  0
 23 24  2  0
 24  4  1  0
 17  8  1  0
 24 19  1  0
 18  8  1  0
 15 11  2  0
  1 25  1  0
  2 26  1  0
  2 27  1  0
  3 28  1  0
  3 29  1  0
  4 30  1  6
  5 31  1  0
  5 32  1  0
  7 33  1  0
  7 34  1  0
  9 35  1  0
  9 36  1  0
 14 37  1  0
 16 38  1  0
 16 39  1  0
 18 40  1  0
 18 41  1  0
 20 42  1  0
 21 43  1  0
 22 44  1  0
 23 45  1  0
M  END
>  <meeko>  (5) 
{"is_sidechain": [false], "free_energy": -8.34, "intermolecular_energy": -10.979, "internal_energy": -0.003}

$$$$
