ligand_89_conformer_2_docked
     RDKit          3D

 51 54  0  0  0  0  0  0  0  0999 V2000
    1.1310   43.7990   51.5660 O   0  0  0  0  0  0  0  0  0  0  0  0
    1.4990   42.9320   52.4050 C   0  0  0  0  0  0  0  0  0  0  0  0
    0.4590   42.1140   53.1160 C   0  0  0  0  0  0  0  0  0  0  0  0
   -0.2490   42.9270   54.2180 C   0  0  2  0  0  0  0  0  0  0  0  0
   -1.6450   43.4070   53.7280 C   0  0  0  0  0  0  0  0  0  0  0  0
   -2.2080   44.5480   54.6140 C   0  0  1  0  0  0  0  0  0  0  0  0
   -2.3000   44.1270   56.0850 C   0  0  0  0  0  0  0  0  0  0  0  0
   -0.9500   44.5450   56.6730 C   0  0  0  0  0  0  0  0  0  0  0  0
   -0.2090   45.1690   55.4840 C   0  0  1  0  0  0  0  0  0  0  0  0
    0.6290   44.1120   54.7180 C   0  0  0  0  0  0  0  0  0  0  0  0
   -1.2690   45.6660   54.6130 N   0  0  0  0  0  0  0  0  0  0  0  0
    2.8940   42.6720   52.6260 N   0  0  0  0  0  0  0  0  0  0  0  0
    3.9580   43.4720   52.0820 C   0  0  0  0  0  0  0  0  0  0  0  0
    4.2610   44.7400   52.6020 C   0  0  0  0  0  0  0  0  0  0  0  0
    5.3130   45.4910   52.0700 C   0  0  0  0  0  0  0  0  0  0  0  0
    6.0880   44.9800   51.0110 C   0  0  0  0  0  0  0  0  0  0  0  0
    7.1490   45.7040   50.4390 O   0  0  0  0  0  0  0  0  0  0  0  0
    8.5180   45.6180   50.8380 C   0  0  0  0  0  0  0  0  0  0  0  0
    8.7780   46.4730   52.0490 C   0  0  0  0  0  0  0  0  0  0  0  0
    9.7050   46.0660   53.0200 C   0  0  0  0  0  0  0  0  0  0  0  0
    9.9300   46.8600   54.1460 C   0  0  0  0  0  0  0  0  0  0  0  0
    9.2200   48.0530   54.2960 C   0  0  0  0  0  0  0  0  0  0  0  0
    8.3150   48.4290   53.3530 N   0  0  0  0  0  0  0  0  0  0  0  0
    8.0770   47.6730   52.2480 C   0  0  0  0  0  0  0  0  0  0  0  0
    5.8000   43.7020   50.5100 C   0  0  0  0  0  0  0  0  0  0  0  0
    6.7530   43.0250   49.1980 Cl  0  0  0  0  0  0  0  0  0  0  0  0
    4.7480   42.9520   51.0470 C   0  0  0  0  0  0  0  0  0  0  0  0
   -0.2902   41.7761   52.3849 H   0  0  0  0  0  0  0  0  0  0  0  0
    0.9607   41.2575   53.5899 H   0  0  0  0  0  0  0  0  0  0  0  0
   -0.4023   42.2652   55.0832 H   0  0  0  0  0  0  0  0  0  0  0  0
   -1.5529   43.7719   52.6944 H   0  0  0  0  0  0  0  0  0  0  0  0
   -2.3386   42.5553   53.7877 H   0  0  0  0  0  0  0  0  0  0  0  0
   -3.1980   44.8041   54.2086 H   0  0  0  0  0  0  0  0  0  0  0  0
   -3.1256   44.6493   56.5906 H   0  0  0  0  0  0  0  0  0  0  0  0
   -2.5012   43.0524   56.2068 H   0  0  0  0  0  0  0  0  0  0  0  0
   -1.0851   45.2803   57.4799 H   0  0  0  0  0  0  0  0  0  0  0  0
   -0.4022   43.7025   57.1203 H   0  0  0  0  0  0  0  0  0  0  0  0
    0.4909   45.9508   55.8139 H   0  0  0  0  0  0  0  0  0  0  0  0
    1.1029   44.5944   53.8504 H   0  0  0  0  0  0  0  0  0  0  0  0
    1.3842   43.7093   55.4090 H   0  0  0  0  0  0  0  0  0  0  0  0
   -0.9110   45.8680   53.6490 H   0  0  0  0  0  0  0  0  0  0  0  0
    3.1520   41.7920   53.1260 H   0  0  0  0  0  0  0  0  0  0  0  0
    3.6665   45.1455   53.4339 H   0  0  0  0  0  0  0  0  0  0  0  0
    5.5368   46.4866   52.4808 H   0  0  0  0  0  0  0  0  0  0  0  0
    8.7586   44.5716   51.0773 H   0  0  0  0  0  0  0  0  0  0  0  0
    9.1487   45.9773   50.0115 H   0  0  0  0  0  0  0  0  0  0  0  0
   10.2545   45.1214   52.8942 H   0  0  0  0  0  0  0  0  0  0  0  0
   10.6598   46.5487   54.9079 H   0  0  0  0  0  0  0  0  0  0  0  0
    9.3927   48.6887   55.1769 H   0  0  0  0  0  0  0  0  0  0  0  0
    7.3330   48.0027   51.5079 H   0  0  0  0  0  0  0  0  0  0  0  0
    4.5390   41.9461   50.6539 H   0  0  0  0  0  0  0  0  0  0  0  0
  1  2  2  0
  2  3  1  0
  3  4  1  0
  4  5  1  0
  5  6  1  0
  6  7  1  0
  7  8  1  0
  8  9  1  0
  9 10  1  0
  9 11  1  0
  2 12  1  0
 12 13  1  0
 13 14  2  0
 14 15  1  0
 15 16  2  0
 16 17  1  0
 17 18  1  0
 18 19  1  0
 19 20  2  0
 20 21  1  0
 21 22  2  0
 22 23  1  0
 23 24  2  0
 16 25  1  0
 25 26  1  0
 25 27  2  0
 10  4  1  0
 27 13  1  0
 11  6  1  0
 24 19  1  0
  3 28  1  0
  3 29  1  0
  4 30  1  1
  5 31  1  0
  5 32  1  0
  6 33  1  6
  7 34  1  0
  7 35  1  0
  8 36  1  0
  8 37  1  0
  9 38  1  1
 10 39  1  0
 10 40  1  0
 11 41  1  0
 12 42  1  0
 14 43  1  0
 15 44  1  0
 18 45  1  0
 18 46  1  0
 20 47  1  0
 21 48  1  0
 22 49  1  0
 24 50  1  0
 27 51  1  0
M  END
>  <meeko>  (1) 
{"is_sidechain": [false], "free_energy": -8.708, "intermolecular_energy": -11.763, "internal_energy": -0.591}

$$$$
ligand_89_conformer_2_docked
     RDKit          3D

 51 54  0  0  0  0  0  0  0  0999 V2000
    1.6600   43.5070   53.7920 O   0  0  0  0  0  0  0  0  0  0  0  0
    1.1600   42.7870   52.8860 C   0  0  0  0  0  0  0  0  0  0  0  0
   -0.1730   42.1370   53.1210 C   0  0  0  0  0  0  0  0  0  0  0  0
   -1.3380   43.0830   52.7680 C   0  0  2  0  0  0  0  0  0  0  0  0
   -1.0750   43.7820   51.4040 C   0  0  0  0  0  0  0  0  0  0  0  0
   -1.9840   45.0230   51.2050 C   0  0  1  0  0  0  0  0  0  0  0  0
   -3.4690   44.6570   51.3140 C   0  0  0  0  0  0  0  0  0  0  0  0
   -3.7890   44.8510   52.7980 C   0  0  0  0  0  0  0  0  0  0  0  0
   -2.4580   45.3120   53.4040 C   0  0  1  0  0  0  0  0  0  0  0  0
   -1.6130   44.1110   53.9040 C   0  0  0  0  0  0  0  0  0  0  0  0
   -1.7610   45.9630   52.3000 N   0  0  0  0  0  0  0  0  0  0  0  0
    1.8130   42.6520   51.6130 N   0  0  0  0  0  0  0  0  0  0  0  0
    3.1360   43.1400   51.3320 C   0  0  0  0  0  0  0  0  0  0  0  0
    3.4760   44.4890   51.5250 C   0  0  0  0  0  0  0  0  0  0  0  0
    4.7740   44.9360   51.2640 C   0  0  0  0  0  0  0  0  0  0  0  0
    5.7600   44.0380   50.8120 C   0  0  0  0  0  0  0  0  0  0  0  0
    7.0750   44.4450   50.5290 O   0  0  0  0  0  0  0  0  0  0  0  0
    7.4780   45.7780   50.2110 C   0  0  0  0  0  0  0  0  0  0  0  0
    8.0850   46.4540   51.4100 C   0  0  0  0  0  0  0  0  0  0  0  0
    9.4140   46.1930   51.7760 C   0  0  0  0  0  0  0  0  0  0  0  0
    9.9650   46.8160   52.8970 C   0  0  0  0  0  0  0  0  0  0  0  0
    9.1790   47.6900   53.6490 C   0  0  0  0  0  0  0  0  0  0  0  0
    7.8890   47.9250   53.2920 N   0  0  0  0  0  0  0  0  0  0  0  0
    7.3290   47.3310   52.2040 C   0  0  0  0  0  0  0  0  0  0  0  0
    5.4240   42.6860   50.6450 C   0  0  0  0  0  0  0  0  0  0  0  0
    6.6300   41.5320   50.0950 Cl  0  0  0  0  0  0  0  0  0  0  0  0
    4.1250   42.2410   50.9100 C   0  0  0  0  0  0  0  0  0  0  0  0
   -0.2447   41.2344   52.4963 H   0  0  0  0  0  0  0  0  0  0  0  0
   -0.2479   41.8839   54.1889 H   0  0  0  0  0  0  0  0  0  0  0  0
   -2.2509   42.4774   52.6684 H   0  0  0  0  0  0  0  0  0  0  0  0
   -0.0232   44.1018   51.3653 H   0  0  0  0  0  0  0  0  0  0  0  0
   -1.3006   43.0624   50.6032 H   0  0  0  0  0  0  0  0  0  0  0  0
   -1.7441   45.4355   50.2139 H   0  0  0  0  0  0  0  0  0  0  0  0
   -4.0830   45.3239   50.6910 H   0  0  0  0  0  0  0  0  0  0  0  0
   -3.6805   43.6355   50.9648 H   0  0  0  0  0  0  0  0  0  0  0  0
   -4.5671   45.6165   52.9339 H   0  0  0  0  0  0  0  0  0  0  0  0
   -4.1774   43.9373   53.2716 H   0  0  0  0  0  0  0  0  0  0  0  0
   -2.6195   45.9691   54.2712 H   0  0  0  0  0  0  0  0  0  0  0  0
   -0.6516   44.4863   54.2846 H   0  0  0  0  0  0  0  0  0  0  0  0
   -2.1805   43.6006   54.6961 H   0  0  0  0  0  0  0  0  0  0  0  0
   -0.7390   46.0800   52.5050 H   0  0  0  0  0  0  0  0  0  0  0  0
    1.2570   42.2650   50.8190 H   0  0  0  0  0  0  0  0  0  0  0  0
    2.7156   45.1982   51.8839 H   0  0  0  0  0  0  0  0  0  0  0  0
    5.0271   45.9961   51.4126 H   0  0  0  0  0  0  0  0  0  0  0  0
    8.2210   45.7463   49.4005 H   0  0  0  0  0  0  0  0  0  0  0  0
    6.5916   46.3483   49.8964 H   0  0  0  0  0  0  0  0  0  0  0  0
   10.0220   45.4971   51.1793 H   0  0  0  0  0  0  0  0  0  0  0  0
   11.0084   46.6199   53.1847 H   0  0  0  0  0  0  0  0  0  0  0  0
    9.6042   48.1895   54.5320 H   0  0  0  0  0  0  0  0  0  0  0  0
    6.2802   47.5385   51.9453 H   0  0  0  0  0  0  0  0  0  0  0  0
    3.8773   41.1764   50.7862 H   0  0  0  0  0  0  0  0  0  0  0  0
  1  2  2  0
  2  3  1  0
  3  4  1  0
  4  5  1  0
  5  6  1  0
  6  7  1  0
  7  8  1  0
  8  9  1  0
  9 10  1  0
  9 11  1  0
  2 12  1  0
 12 13  1  0
 13 14  2  0
 14 15  1  0
 15 16  2  0
 16 17  1  0
 17 18  1  0
 18 19  1  0
 19 20  2  0
 20 21  1  0
 21 22  2  0
 22 23  1  0
 23 24  2  0
 16 25  1  0
 25 26  1  0
 25 27  2  0
 10  4  1  0
 27 13  1  0
 11  6  1  0
 24 19  1  0
  3 28  1  0
  3 29  1  0
  4 30  1  6
  5 31  1  0
  5 32  1  0
  6 33  1  6
  7 34  1  0
  7 35  1  0
  8 36  1  0
  8 37  1  0
  9 38  1  1
 10 39  1  0
 10 40  1  0
 11 41  1  0
 12 42  1  0
 14 43  1  0
 15 44  1  0
 18 45  1  0
 18 46  1  0
 20 47  1  0
 21 48  1  0
 22 49  1  0
 24 50  1  0
 27 51  1  0
M  END
>  <meeko>  (2) 
{"is_sidechain": [false], "free_energy": -8.365, "intermolecular_energy": -11.629, "internal_energy": -0.261}

$$$$
ligand_89_conformer_2_docked
     RDKit          3D

 51 54  0  0  0  0  0  0  0  0999 V2000
    0.0840   43.5830   52.2390 O   0  0  0  0  0  0  0  0  0  0  0  0
   -0.2410   44.7620   52.5450 C   0  0  0  0  0  0  0  0  0  0  0  0
   -1.6930   45.0930   52.7440 C   0  0  0  0  0  0  0  0  0  0  0  0
   -2.1810   44.6890   54.1490 C   0  0  2  0  0  0  0  0  0  0  0  0
   -3.2060   45.7270   54.6870 C   0  0  0  0  0  0  0  0  0  0  0  0
   -3.4070   45.6010   56.2200 C   0  0  1  0  0  0  0  0  0  0  0  0
   -3.8540   44.1890   56.6160 C   0  0  0  0  0  0  0  0  0  0  0  0
   -2.5410   43.4480   56.8810 C   0  0  0  0  0  0  0  0  0  0  0  0
   -1.4620   44.5040   56.6150 C   0  0  1  0  0  0  0  0  0  0  0  0
   -0.9950   44.4790   55.1350 C   0  0  0  0  0  0  0  0  0  0  0  0
   -2.1220   45.7770   56.8900 N   0  0  0  0  0  0  0  0  0  0  0  0
    0.7640   45.7620   52.7810 N   0  0  0  0  0  0  0  0  0  0  0  0
    2.1630   45.5750   52.5100 C   0  0  0  0  0  0  0  0  0  0  0  0
    2.7050   45.8340   51.2400 C   0  0  0  0  0  0  0  0  0  0  0  0
    4.0730   45.6640   51.0060 C   0  0  0  0  0  0  0  0  0  0  0  0
    4.9260   45.2400   52.0440 C   0  0  0  0  0  0  0  0  0  0  0  0
    6.3050   45.0480   51.8510 O   0  0  0  0  0  0  0  0  0  0  0  0
    7.2230   46.0430   51.3950 C   0  0  0  0  0  0  0  0  0  0  0  0
    8.0610   46.5600   52.5330 C   0  0  0  0  0  0  0  0  0  0  0  0
    9.4580   46.4330   52.5010 C   0  0  0  0  0  0  0  0  0  0  0  0
   10.2270   46.9050   53.5660 C   0  0  0  0  0  0  0  0  0  0  0  0
    9.5910   47.4930   54.6610 C   0  0  0  0  0  0  0  0  0  0  0  0
    8.2360   47.5990   54.6860 N   0  0  0  0  0  0  0  0  0  0  0  0
    7.4650   47.1470   53.6600 C   0  0  0  0  0  0  0  0  0  0  0  0
    4.3860   45.0080   53.3170 C   0  0  0  0  0  0  0  0  0  0  0  0
    5.4200   44.4910   54.6400 Cl  0  0  0  0  0  0  0  0  0  0  0  0
    3.0170   45.1810   53.5490 C   0  0  0  0  0  0  0  0  0  0  0  0
   -1.8327   46.1765   52.6157 H   0  0  0  0  0  0  0  0  0  0  0  0
   -2.2784   44.5302   52.0020 H   0  0  0  0  0  0  0  0  0  0  0  0
   -2.6928   43.7189   54.0662 H   0  0  0  0  0  0  0  0  0  0  0  0
   -2.8405   46.7390   54.4583 H   0  0  0  0  0  0  0  0  0  0  0  0
   -4.1732   45.5349   54.1996 H   0  0  0  0  0  0  0  0  0  0  0  0
   -4.1581   46.3531   56.5034 H   0  0  0  0  0  0  0  0  0  0  0  0
   -4.4780   44.2156   57.5215 H   0  0  0  0  0  0  0  0  0  0  0  0
   -4.4655   43.7045   55.8406 H   0  0  0  0  0  0  0  0  0  0  0  0
   -2.4943   43.0942   57.9215 H   0  0  0  0  0  0  0  0  0  0  0  0
   -2.4239   42.5537   56.2514 H   0  0  0  0  0  0  0  0  0  0  0  0
   -0.5689   44.3296   57.2330 H   0  0  0  0  0  0  0  0  0  0  0  0
   -0.2581   45.2810   54.9809 H   0  0  0  0  0  0  0  0  0  0  0  0
   -0.5542   43.4916   54.9330 H   0  0  0  0  0  0  0  0  0  0  0  0
   -1.5850   46.5830   56.4880 H   0  0  0  0  0  0  0  0  0  0  0  0
    0.4740   46.6370   53.2700 H   0  0  0  0  0  0  0  0  0  0  0  0
    2.0490   46.1727   50.4245 H   0  0  0  0  0  0  0  0  0  0  0  0
    4.4855   45.8624   50.0058 H   0  0  0  0  0  0  0  0  0  0  0  0
    7.8826   45.6026   50.6327 H   0  0  0  0  0  0  0  0  0  0  0  0
    6.6514   46.8810   50.9695 H   0  0  0  0  0  0  0  0  0  0  0  0
    9.9474   45.9612   51.6362 H   0  0  0  0  0  0  0  0  0  0  0  0
   11.3230   46.8146   53.5428 H   0  0  0  0  0  0  0  0  0  0  0  0
   10.1872   47.8710   55.5046 H   0  0  0  0  0  0  0  0  0  0  0  0
    6.3704   47.2420   53.7140 H   0  0  0  0  0  0  0  0  0  0  0  0
    2.6078   45.0063   54.5550 H   0  0  0  0  0  0  0  0  0  0  0  0
  1  2  2  0
  2  3  1  0
  3  4  1  0
  4  5  1  0
  5  6  1  0
  6  7  1  0
  7  8  1  0
  8  9  1  0
  9 10  1  0
  9 11  1  0
  2 12  1  0
 12 13  1  0
 13 14  2  0
 14 15  1  0
 15 16  2  0
 16 17  1  0
 17 18  1  0
 18 19  1  0
 19 20  2  0
 20 21  1  0
 21 22  2  0
 22 23  1  0
 23 24  2  0
 16 25  1  0
 25 26  1  0
 25 27  2  0
 10  4  1  0
 27 13  1  0
 11  6  1  0
 24 19  1  0
  3 28  1  0
  3 29  1  0
  4 30  1  6
  5 31  1  0
  5 32  1  0
  6 33  1  1
  7 34  1  0
  7 35  1  0
  8 36  1  0
  8 37  1  0
  9 38  1  1
 10 39  1  0
 10 40  1  0
 11 41  1  0
 12 42  1  0
 14 43  1  0
 15 44  1  0
 18 45  1  0
 18 46  1  0
 20 47  1  0
 21 48  1  0
 22 49  1  0
 24 50  1  0
 27 51  1  0
M  END
>  <meeko>  (3) 
{"is_sidechain": [false], "free_energy": -8.13, "intermolecular_energy": -11.032, "internal_energy": -0.541}

$$$$
ligand_89_conformer_2_docked
     RDKit          3D

 51 54  0  0  0  0  0  0  0  0999 V2000
    0.5940   45.1440   53.1060 O   0  0  0  0  0  0  0  0  0  0  0  0
    0.6770   43.9830   53.5910 C   0  0  0  0  0  0  0  0  0  0  0  0
   -0.5210   43.3880   54.2740 C   0  0  0  0  0  0  0  0  0  0  0  0
   -1.3140   44.4520   55.0600 C   0  0  2  0  0  0  0  0  0  0  0  0
   -0.5020   44.9290   56.2980 C   0  0  0  0  0  0  0  0  0  0  0  0
   -1.3980   45.6680   57.3270 C   0  0  1  0  0  0  0  0  0  0  0  0
   -2.1150   46.8660   56.6930 C   0  0  0  0  0  0  0  0  0  0  0  0
   -3.4370   46.2800   56.1920 C   0  0  0  0  0  0  0  0  0  0  0  0
   -3.3570   44.8010   56.5870 C   0  0  1  0  0  0  0  0  0  0  0  0
   -2.7310   43.9430   55.4550 C   0  0  0  0  0  0  0  0  0  0  0  0
   -2.4770   44.7800   57.7500 N   0  0  0  0  0  0  0  0  0  0  0  0
    1.8730   43.2040   53.4260 N   0  0  0  0  0  0  0  0  0  0  0  0
    3.1020   43.7210   52.8900 C   0  0  0  0  0  0  0  0  0  0  0  0
    3.6710   44.9090   53.3750 C   0  0  0  0  0  0  0  0  0  0  0  0
    4.8790   45.3810   52.8510 C   0  0  0  0  0  0  0  0  0  0  0  0
    5.5440   44.6660   51.8370 C   0  0  0  0  0  0  0  0  0  0  0  0
    6.7540   45.1070   51.2750 O   0  0  0  0  0  0  0  0  0  0  0  0
    7.1830   46.4680   51.2000 C   0  0  0  0  0  0  0  0  0  0  0  0
    8.0710   46.8140   52.3650 C   0  0  0  0  0  0  0  0  0  0  0  0
    9.4540   46.5870   52.2960 C   0  0  0  0  0  0  0  0  0  0  0  0
   10.2680   46.9010   53.3860 C   0  0  0  0  0  0  0  0  0  0  0  0
    9.6910   47.4320   54.5410 C   0  0  0  0  0  0  0  0  0  0  0  0
    8.3480   47.6350   54.5990 N   0  0  0  0  0  0  0  0  0  0  0  0
    7.5330   47.3380   53.5510 C   0  0  0  0  0  0  0  0  0  0  0  0
    4.9860   43.4650   51.3720 C   0  0  0  0  0  0  0  0  0  0  0  0
    5.7920   42.5380   50.1160 Cl  0  0  0  0  0  0  0  0  0  0  0  0
    3.7790   42.9940   51.9000 C   0  0  0  0  0  0  0  0  0  0  0  0
   -1.1794   42.9411   53.5145 H   0  0  0  0  0  0  0  0  0  0  0  0
   -0.1683   42.6269   54.9856 H   0  0  0  0  0  0  0  0  0  0  0  0
   -1.4677   45.3190   54.4007 H   0  0  0  0  0  0  0  0  0  0  0  0
   -0.0488   44.0531   56.7852 H   0  0  0  0  0  0  0  0  0  0  0  0
    0.2692   45.6320   55.9501 H   0  0  0  0  0  0  0  0  0  0  0  0
   -0.7402   45.9850   58.1497 H   0  0  0  0  0  0  0  0  0  0  0  0
   -2.2940   47.6546   57.4387 H   0  0  0  0  0  0  0  0  0  0  0  0
   -1.5278   47.3359   55.8903 H   0  0  0  0  0  0  0  0  0  0  0  0
   -4.2924   46.7699   56.6802 H   0  0  0  0  0  0  0  0  0  0  0  0
   -3.5824   46.4235   55.1111 H   0  0  0  0  0  0  0  0  0  0  0  0
   -4.3557   44.3849   56.7854 H   0  0  0  0  0  0  0  0  0  0  0  0
   -2.6518   42.9015   55.8000 H   0  0  0  0  0  0  0  0  0  0  0  0
   -3.3802   44.0182   54.5702 H   0  0  0  0  0  0  0  0  0  0  0  0
   -2.1240   43.8130   57.9480 H   0  0  0  0  0  0  0  0  0  0  0  0
    1.8150   42.1780   53.6130 H   0  0  0  0  0  0  0  0  0  0  0  0
    3.1638   45.4723   54.1721 H   0  0  0  0  0  0  0  0  0  0  0  0
    5.3121   46.3169   53.2337 H   0  0  0  0  0  0  0  0  0  0  0  0
    7.7409   46.6191   50.2641 H   0  0  0  0  0  0  0  0  0  0  0  0
    6.2966   47.1189   51.2271 H   0  0  0  0  0  0  0  0  0  0  0  0
    9.8968   46.1617   51.3833 H   0  0  0  0  0  0  0  0  0  0  0  0
   11.3537   46.7316   53.3352 H   0  0  0  0  0  0  0  0  0  0  0  0
   10.3233   47.6862   55.4045 H   0  0  0  0  0  0  0  0  0  0  0  0
    6.4495   47.5089   53.6332 H   0  0  0  0  0  0  0  0  0  0  0  0
    3.3575   42.0456   51.5356 H   0  0  0  0  0  0  0  0  0  0  0  0
  1  2  2  0
  2  3  1  0
  3  4  1  0
  4  5  1  0
  5  6  1  0
  6  7  1  0
  7  8  1  0
  8  9  1  0
  9 10  1  0
  9 11  1  0
  2 12  1  0
 12 13  1  0
 13 14  2  0
 14 15  1  0
 15 16  2  0
 16 17  1  0
 17 18  1  0
 18 19  1  0
 19 20  2  0
 20 21  1  0
 21 22  2  0
 22 23  1  0
 23 24  2  0
 16 25  1  0
 25 26  1  0
 25 27  2  0
 10  4  1  0
 27 13  1  0
 11  6  1  0
 24 19  1  0
  3 28  1  0
  3 29  1  0
  4 30  1  6
  5 31  1  0
  5 32  1  0
  6 33  1  1
  7 34  1  0
  7 35  1  0
  8 36  1  0
  8 37  1  0
  9 38  1  1
 10 39  1  0
 10 40  1  0
 11 41  1  0
 12 42  1  0
 14 43  1  0
 15 44  1  0
 18 45  1  0
 18 46  1  0
 20 47  1  0
 21 48  1  0
 22 49  1  0
 24 50  1  0
 27 51  1  0
M  END
>  <meeko>  (4) 
{"is_sidechain": [false], "free_energy": -7.949, "intermolecular_energy": -11.032, "internal_energy": -0.297}

$$$$
ligand_89_conformer_2_docked
     RDKit          3D

 51 54  0  0  0  0  0  0  0  0999 V2000
    3.6790   46.1220   51.1700 O   0  0  0  0  0  0  0  0  0  0  0  0
    4.5670   45.3260   51.5770 C   0  0  0  0  0  0  0  0  0  0  0  0
    5.8660   45.2330   50.8280 C   0  0  0  0  0  0  0  0  0  0  0  0
    7.0500   45.7360   51.6770 C   0  0  2  0  0  0  0  0  0  0  0  0
    6.7670   47.1700   52.2070 C   0  0  0  0  0  0  0  0  0  0  0  0
    8.0600   47.8690   52.7030 C   0  0  1  0  0  0  0  0  0  0  0  0
    8.7610   47.0500   53.7930 C   0  0  0  0  0  0  0  0  0  0  0  0
    9.7270   46.1530   53.0160 C   0  0  0  0  0  0  0  0  0  0  0  0
    9.4920   46.5410   51.5510 C   0  0  1  0  0  0  0  0  0  0  0  0
    8.3950   45.6590   50.8980 C   0  0  0  0  0  0  0  0  0  0  0  0
    9.0270   47.9220   51.6100 N   0  0  0  0  0  0  0  0  0  0  0  0
    4.3790   44.5730   52.7870 N   0  0  0  0  0  0  0  0  0  0  0  0
    3.1370   44.5090   53.5090 C   0  0  0  0  0  0  0  0  0  0  0  0
    2.8890   45.3360   54.6160 C   0  0  0  0  0  0  0  0  0  0  0  0
    1.6660   45.2700   55.2900 C   0  0  0  0  0  0  0  0  0  0  0  0
    0.6640   44.3790   54.8610 C   0  0  0  0  0  0  0  0  0  0  0  0
   -0.5770   44.2720   55.5130 O   0  0  0  0  0  0  0  0  0  0  0  0
   -0.8740   44.7840   56.8130 C   0  0  0  0  0  0  0  0  0  0  0  0
   -1.7350   46.0140   56.7210 C   0  0  0  0  0  0  0  0  0  0  0  0
   -2.8850   46.0170   55.9180 C   0  0  0  0  0  0  0  0  0  0  0  0
   -3.6720   47.1670   55.8290 C   0  0  0  0  0  0  0  0  0  0  0  0
   -3.2970   48.3090   56.5390 C   0  0  0  0  0  0  0  0  0  0  0  0
   -2.1730   48.2970   57.3030 N   0  0  0  0  0  0  0  0  0  0  0  0
   -1.3900   47.1900   57.4070 C   0  0  0  0  0  0  0  0  0  0  0  0
    0.9040   43.5720   53.7390 C   0  0  0  0  0  0  0  0  0  0  0  0
   -0.3260   42.4570   53.1650 Cl  0  0  0  0  0  0  0  0  0  0  0  0
    2.1280   43.6430   53.0650 C   0  0  0  0  0  0  0  0  0  0  0  0
    6.0448   44.1830   50.5532 H   0  0  0  0  0  0  0  0  0  0  0  0
    5.7919   45.8673   49.9324 H   0  0  0  0  0  0  0  0  0  0  0  0
    7.1550   45.0684   52.5449 H   0  0  0  0  0  0  0  0  0  0  0  0
    6.3279   47.7689   51.3955 H   0  0  0  0  0  0  0  0  0  0  0  0
    6.0754   47.0884   53.0585 H   0  0  0  0  0  0  0  0  0  0  0  0
    7.7613   48.8598   53.0761 H   0  0  0  0  0  0  0  0  0  0  0  0
    9.3080   47.7070   54.4852 H   0  0  0  0  0  0  0  0  0  0  0  0
    8.0555   46.4769   54.4125 H   0  0  0  0  0  0  0  0  0  0  0  0
   10.7681   46.3506   53.3112 H   0  0  0  0  0  0  0  0  0  0  0  0
    9.5569   45.0826   53.2042 H   0  0  0  0  0  0  0  0  0  0  0  0
   10.4040   46.4098   50.9501 H   0  0  0  0  0  0  0  0  0  0  0  0
    8.2290   46.0032   49.8665 H   0  0  0  0  0  0  0  0  0  0  0  0
    8.7408   44.6149   50.9163 H   0  0  0  0  0  0  0  0  0  0  0  0
    8.5750   48.2150   50.7100 H   0  0  0  0  0  0  0  0  0  0  0  0
    5.2190   44.1290   53.2200 H   0  0  0  0  0  0  0  0  0  0  0  0
    3.6623   46.0408   54.9554 H   0  0  0  0  0  0  0  0  0  0  0  0
    1.4856   45.9179   56.1604 H   0  0  0  0  0  0  0  0  0  0  0  0
   -1.4064   44.0139   57.3905 H   0  0  0  0  0  0  0  0  0  0  0  0
    0.0702   45.0520   57.3096 H   0  0  0  0  0  0  0  0  0  0  0  0
   -3.1670   45.1131   55.3582 H   0  0  0  0  0  0  0  0  0  0  0  0
   -4.5783   47.1730   55.2057 H   0  0  0  0  0  0  0  0  0  0  0  0
   -3.9117   49.2193   56.4801 H   0  0  0  0  0  0  0  0  0  0  0  0
   -0.4839   47.2157   58.0302 H   0  0  0  0  0  0  0  0  0  0  0  0
    2.3000   43.0140   52.1792 H   0  0  0  0  0  0  0  0  0  0  0  0
  1  2  2  0
  2  3  1  0
  3  4  1  0
  4  5  1  0
  5  6  1  0
  6  7  1  0
  7  8  1  0
  8  9  1  0
  9 10  1  0
  9 11  1  0
  2 12  1  0
 12 13  1  0
 13 14  2  0
 14 15  1  0
 15 16  2  0
 16 17  1  0
 17 18  1  0
 18 19  1  0
 19 20  2  0
 20 21  1  0
 21 22  2  0
 22 23  1  0
 23 24  2  0
 16 25  1  0
 25 26  1  0
 25 27  2  0
 10  4  1  0
 27 13  1  0
 11  6  1  0
 24 19  1  0
  3 28  1  0
  3 29  1  0
  4 30  1  1
  5 31  1  0
  5 32  1  0
  6 33  1  1
  7 34  1  0
  7 35  1  0
  8 36  1  0
  8 37  1  0
  9 38  1  6
 10 39  1  0
 10 40  1  0
 11 41  1  0
 12 42  1  0
 14 43  1  0
 15 44  1  0
 18 45  1  0
 18 46  1  0
 20 47  1  0
 21 48  1  0
 22 49  1  0
 24 50  1  0
 27 51  1  0
M  END
>  <meeko>  (5) 
{"is_sidechain": [false], "free_energy": -7.925, "intermolecular_energy": -10.519, "internal_energy": -0.777}

$$$$
