MODEL 1
REMARK VINA RESULT:    -9.414      0.000      0.000
REMARK INTER + INTRA:         -12.460
REMARK INTER:                 -11.616
REMARK INTRA:                  -0.844
REMARK UNBOUND:                -0.844
REMARK SMILES O=C(Nc1nc2ccccc2n1C1CCCC1)c1coc(C2CCOCC2)n1
REMARK SMILES IDX 1 1 2 2 3 3 18 5 19 6 28 7 20 8 21 9 22 10 23 11 27 12 24 13
REMARK SMILES IDX 26 14 25 15 4 16 5 17 12 18 6 19 11 20 7 21 10 22 8 23 9 24
REMARK SMILES IDX 13 25 14 26 17 27 15 28 16 29
REMARK H PARENT 3 4
ROOT
ATOM      1  O   UNL     1       4.557  44.557  55.334  1.00  0.00    -0.267 OA
ATOM      2  C   UNL     1       3.829  45.427  54.784  1.00  0.00     0.279 C 
ATOM      3  N   UNL     1       4.415  46.519  54.054  1.00  0.00    -0.290 N 
ATOM      4  H   UNL     1       3.767  47.247  53.693  1.00  0.00     0.173 HD
ENDROOT
BRANCH   2   5
ATOM      5  C   UNL     1       2.366  45.323  54.897  1.00  0.00     0.167 A 
ATOM      6  C   UNL     1       1.620  45.467  56.047  1.00  0.00     0.231 A 
ATOM      7  N   UNL     1       1.548  45.055  53.863  1.00  0.00    -0.208 NA
ATOM      8  O   UNL     1       0.363  45.291  55.722  1.00  0.00    -0.448 OA
ATOM      9  C   UNL     1       0.323  45.052  54.429  1.00  0.00     0.198 A 
BRANCH   9  10
ATOM     10  C   UNL     1      -0.955  44.764  53.682  1.00  0.00     0.080 C 
ATOM     11  C   UNL     1      -1.321  43.272  53.771  1.00  0.00     0.042 C 
ATOM     12  C   UNL     1      -0.903  45.226  52.211  1.00  0.00     0.042 C 
ATOM     13  C   UNL     1      -0.509  42.445  52.767  1.00  0.00     0.161 C 
ATOM     14  C   UNL     1      -0.167  44.215  51.315  1.00  0.00     0.161 C 
ATOM     15  O   UNL     1      -0.715  42.917  51.450  1.00  0.00    -0.381 OA
ENDBRANCH   9  10
ENDBRANCH   2   5
BRANCH   3  16
ATOM     16  C   UNL     1       5.822  46.645  53.786  1.00  0.00     0.211 A 
ATOM     17  N   UNL     1       6.679  47.246  54.653  1.00  0.00    -0.213 NA
ATOM     18  N   UNL     1       6.432  46.162  52.660  1.00  0.00    -0.307 N 
ATOM     19  C   UNL     1       7.867  47.128  54.039  1.00  0.00     0.091 A 
ATOM     20  C   UNL     1       7.732  46.479  52.845  1.00  0.00     0.070 A 
ATOM     21  C   UNL     1       9.101  47.579  54.503  1.00  0.00     0.031 A 
ATOM     22  C   UNL     1       8.838  46.228  52.023  1.00  0.00     0.028 A 
ATOM     23  C   UNL     1      10.229  47.344  53.698  1.00  0.00     0.002 A 
ATOM     24  C   UNL     1      10.098  46.671  52.463  1.00  0.00     0.002 A 
BRANCH  18  25
ATOM     25  C   UNL     1       5.848  45.447  51.505  1.00  0.00     0.091 C 
ATOM     26  C   UNL     1       5.496  43.998  51.835  1.00  0.00     0.025 C 
ATOM     27  C   UNL     1       4.575  46.116  50.974  1.00  0.00     0.025 C 
ATOM     28  C   UNL     1       4.254  43.688  51.018  1.00  0.00     0.002 C 
ATOM     29  C   UNL     1       3.530  45.013  50.819  1.00  0.00     0.002 C 
ENDBRANCH  18  25
ENDBRANCH   3  16
TORSDOF 4
ENDMDL
MODEL 2
REMARK VINA RESULT:    -9.350      1.883      2.743
REMARK INTER + INTRA:         -12.380
REMARK INTER:                 -12.595
REMARK INTRA:                   0.215
REMARK UNBOUND:                -0.844
REMARK SMILES O=C(Nc1nc2ccccc2n1C1CCCC1)c1coc(C2CCOCC2)n1
REMARK SMILES IDX 1 1 2 2 3 3 18 5 19 6 28 7 20 8 21 9 22 10 23 11 27 12 24 13
REMARK SMILES IDX 26 14 25 15 4 16 5 17 12 18 6 19 11 20 7 21 10 22 8 23 9 24
REMARK SMILES IDX 13 25 14 26 17 27 15 28 16 29
REMARK H PARENT 3 4
ROOT
ATOM      1  O   UNL     1       3.390  47.448  53.022  1.00  0.00    -0.267 OA
ATOM      2  C   UNL     1       3.240  46.220  53.266  1.00  0.00     0.279 C 
ATOM      3  N   UNL     1       4.375  45.339  53.329  1.00  0.00    -0.290 N 
ATOM      4  H   UNL     1       4.180  44.326  53.451  1.00  0.00     0.173 HD
ENDROOT
BRANCH   2   5
ATOM      5  C   UNL     1       1.886  45.686  53.480  1.00  0.00     0.167 A 
ATOM      6  C   UNL     1       0.875  45.613  52.547  1.00  0.00     0.231 A 
ATOM      7  N   UNL     1       1.448  45.196  54.655  1.00  0.00    -0.208 NA
ATOM      8  O   UNL     1      -0.167  45.086  53.140  1.00  0.00    -0.448 OA
ATOM      9  C   UNL     1       0.175  44.836  54.386  1.00  0.00     0.198 A 
BRANCH   9  10
ATOM     10  C   UNL     1      -0.774  44.252  55.402  1.00  0.00     0.080 C 
ATOM     11  C   UNL     1      -2.223  44.287  54.887  1.00  0.00     0.042 C 
ATOM     12  C   UNL     1      -0.667  44.938  56.779  1.00  0.00     0.042 C 
ATOM     13  C   UNL     1      -2.837  45.681  55.066  1.00  0.00     0.161 C 
ATOM     14  C   UNL     1      -1.451  46.261  56.827  1.00  0.00     0.161 C 
ATOM     15  O   UNL     1      -2.795  46.074  56.423  1.00  0.00    -0.381 OA
ENDBRANCH   9  10
ENDBRANCH   2   5
BRANCH   3  16
ATOM     16  C   UNL     1       5.741  45.781  53.251  1.00  0.00     0.211 A 
ATOM     17  N   UNL     1       6.371  46.391  54.290  1.00  0.00    -0.213 NA
ATOM     18  N   UNL     1       6.537  45.616  52.149  1.00  0.00    -0.307 N 
ATOM     19  C   UNL     1       7.606  46.610  53.812  1.00  0.00     0.091 A 
ATOM     20  C   UNL     1       7.718  46.149  52.532  1.00  0.00     0.070 A 
ATOM     21  C   UNL     1       8.670  47.214  54.479  1.00  0.00     0.031 A 
ATOM     22  C   UNL     1       8.920  46.257  51.821  1.00  0.00     0.028 A 
ATOM     23  C   UNL     1       9.889  47.339  53.790  1.00  0.00     0.002 A 
ATOM     24  C   UNL     1      10.013  46.862  52.467  1.00  0.00     0.002 A 
BRANCH  18  25
ATOM     25  C   UNL     1       6.223  44.997  50.845  1.00  0.00     0.091 C 
ATOM     26  C   UNL     1       7.475  44.716  50.018  1.00  0.00     0.025 C 
ATOM     27  C   UNL     1       5.460  43.674  50.983  1.00  0.00     0.025 C 
ATOM     28  C   UNL     1       7.171  43.443  49.246  1.00  0.00     0.002 C 
ATOM     29  C   UNL     1       6.168  42.662  50.084  1.00  0.00     0.002 C 
ENDBRANCH  18  25
ENDBRANCH   3  16
TORSDOF 4
ENDMDL
MODEL 3
REMARK VINA RESULT:    -9.099      2.322      8.155
REMARK INTER + INTRA:         -12.070
REMARK INTER:                 -11.255
REMARK INTRA:                  -0.815
REMARK UNBOUND:                -0.844
REMARK SMILES O=C(Nc1nc2ccccc2n1C1CCCC1)c1coc(C2CCOCC2)n1
REMARK SMILES IDX 1 1 2 2 3 3 18 5 19 6 28 7 20 8 21 9 22 10 23 11 27 12 24 13
REMARK SMILES IDX 26 14 25 15 4 16 5 17 12 18 6 19 11 20 7 21 10 22 8 23 9 24
REMARK SMILES IDX 13 25 14 26 17 27 15 28 16 29
REMARK H PARENT 3 4
ROOT
ATOM      1  O   UNL     1       4.716  43.267  52.159  1.00  0.00    -0.267 OA
ATOM      2  C   UNL     1       4.791  44.322  51.472  1.00  0.00     0.279 C 
ATOM      3  N   UNL     1       3.602  45.026  51.076  1.00  0.00    -0.290 N 
ATOM      4  H   UNL     1       3.724  45.840  50.443  1.00  0.00     0.173 HD
ENDROOT
BRANCH   2   5
ATOM      5  C   UNL     1       6.111  44.830  51.069  1.00  0.00     0.167 A 
ATOM      6  C   UNL     1       6.940  44.291  50.109  1.00  0.00     0.231 A 
ATOM      7  N   UNL     1       6.699  45.912  51.612  1.00  0.00    -0.208 NA
ATOM      8  O   UNL     1       8.019  45.033  50.063  1.00  0.00    -0.448 OA
ATOM      9  C   UNL     1       7.872  45.994  50.950  1.00  0.00     0.198 A 
BRANCH   9  10
ATOM     10  C   UNL     1       8.926  47.038  51.218  1.00  0.00     0.080 C 
ATOM     11  C   UNL     1      10.148  46.421  51.921  1.00  0.00     0.042 C 
ATOM     12  C   UNL     1       8.385  48.239  52.020  1.00  0.00     0.042 C 
ATOM     13  C   UNL     1       9.890  46.248  53.423  1.00  0.00     0.161 C 
ATOM     14  C   UNL     1       8.315  47.942  53.528  1.00  0.00     0.161 C 
ATOM     15  O   UNL     1       9.563  47.489  54.018  1.00  0.00    -0.381 OA
ENDBRANCH   9  10
ENDBRANCH   2   5
BRANCH   3  16
ATOM     16  C   UNL     1       2.277  44.679  51.516  1.00  0.00     0.211 A 
ATOM     17  N   UNL     1       1.470  43.842  50.812  1.00  0.00    -0.213 NA
ATOM     18  N   UNL     1       1.714  45.132  52.678  1.00  0.00    -0.307 N 
ATOM     19  C   UNL     1       0.364  43.774  51.569  1.00  0.00     0.091 A 
ATOM     20  C   UNL     1       0.500  44.541  52.691  1.00  0.00     0.070 A 
ATOM     21  C   UNL     1      -0.791  43.040  51.307  1.00  0.00     0.031 A 
ATOM     22  C   UNL     1      -0.523  44.624  53.645  1.00  0.00     0.028 A 
ATOM     23  C   UNL     1      -1.836  43.106  52.245  1.00  0.00     0.002 A 
ATOM     24  C   UNL     1      -1.702  43.895  53.409  1.00  0.00     0.002 A 
BRANCH  18  25
ATOM     25  C   UNL     1       2.272  46.037  53.705  1.00  0.00     0.091 C 
ATOM     26  C   UNL     1       3.168  45.304  54.701  1.00  0.00     0.025 C 
ATOM     27  C   UNL     1       3.099  47.180  53.103  1.00  0.00     0.025 C 
ATOM     28  C   UNL     1       4.254  46.299  55.076  1.00  0.00     0.002 C 
ATOM     29  C   UNL     1       4.413  47.230  53.880  1.00  0.00     0.002 C 
ENDBRANCH  18  25
ENDBRANCH   3  16
TORSDOF 4
ENDMDL
MODEL 4
REMARK VINA RESULT:    -9.055      2.309      7.929
REMARK INTER + INTRA:         -12.017
REMARK INTER:                 -11.098
REMARK INTRA:                  -0.919
REMARK UNBOUND:                -0.844
REMARK SMILES O=C(Nc1nc2ccccc2n1C1CCCC1)c1coc(C2CCOCC2)n1
REMARK SMILES IDX 1 1 2 2 3 3 18 5 19 6 28 7 20 8 21 9 22 10 23 11 27 12 24 13
REMARK SMILES IDX 26 14 25 15 4 16 5 17 12 18 6 19 11 20 7 21 10 22 8 23 9 24
REMARK SMILES IDX 13 25 14 26 17 27 15 28 16 29
REMARK H PARENT 3 4
ROOT
ATOM      1  O   UNL     1       2.823  47.087  53.075  1.00  0.00    -0.267 OA
ATOM      2  C   UNL     1       3.597  46.133  53.360  1.00  0.00     0.279 C 
ATOM      3  N   UNL     1       3.191  45.111  54.286  1.00  0.00    -0.290 N 
ATOM      4  H   UNL     1       3.902  44.398  54.543  1.00  0.00     0.173 HD
ENDROOT
BRANCH   2   5
ATOM      5  C   UNL     1       4.930  46.074  52.741  1.00  0.00     0.167 A 
ATOM      6  C   UNL     1       5.520  44.969  52.167  1.00  0.00     0.231 A 
ATOM      7  N   UNL     1       5.772  47.121  52.666  1.00  0.00    -0.208 NA
ATOM      8  O   UNL     1       6.705  45.333  51.745  1.00  0.00    -0.448 OA
ATOM      9  C   UNL     1       6.850  46.607  52.037  1.00  0.00     0.198 A 
BRANCH   9  10
ATOM     10  C   UNL     1       8.107  47.385  51.736  1.00  0.00     0.080 C 
ATOM     11  C   UNL     1       9.318  46.447  51.605  1.00  0.00     0.042 C 
ATOM     12  C   UNL     1       8.384  48.493  52.774  1.00  0.00     0.042 C 
ATOM     13  C   UNL     1       9.857  46.047  52.984  1.00  0.00     0.161 C 
ATOM     14  C   UNL     1       9.048  47.938  54.046  1.00  0.00     0.161 C 
ATOM     15  O   UNL     1      10.209  47.193  53.734  1.00  0.00    -0.381 OA
ENDBRANCH   9  10
ENDBRANCH   2   5
BRANCH   3  16
ATOM     16  C   UNL     1       1.873  45.014  54.851  1.00  0.00     0.211 A 
ATOM     17  N   UNL     1       1.530  45.629  56.014  1.00  0.00    -0.213 NA
ATOM     18  N   UNL     1       0.842  44.323  54.274  1.00  0.00    -0.307 N 
ATOM     19  C   UNL     1       0.236  45.306  56.162  1.00  0.00     0.091 A 
ATOM     20  C   UNL     1      -0.188  44.525  55.124  1.00  0.00     0.070 A 
ATOM     21  C   UNL     1      -0.612  45.685  57.200  1.00  0.00     0.031 A 
ATOM     22  C   UNL     1      -1.510  44.067  55.050  1.00  0.00     0.028 A 
ATOM     23  C   UNL     1      -1.944  45.239  57.155  1.00  0.00     0.002 A 
ATOM     24  C   UNL     1      -2.391  44.433  56.084  1.00  0.00     0.002 A 
BRANCH  18  25
ATOM     25  C   UNL     1       0.817  43.543  53.019  1.00  0.00     0.091 C 
ATOM     26  C   UNL     1       0.803  44.435  51.780  1.00  0.00     0.025 C 
ATOM     27  C   UNL     1       2.015  42.595  52.885  1.00  0.00     0.025 C 
ATOM     28  C   UNL     1       1.597  43.679  50.728  1.00  0.00     0.002 C 
ATOM     29  C   UNL     1       2.589  42.807  51.486  1.00  0.00     0.002 C 
ENDBRANCH  18  25
ENDBRANCH   3  16
TORSDOF 4
ENDMDL
MODEL 5
REMARK VINA RESULT:    -8.580      2.548      4.157
REMARK INTER + INTRA:         -11.431
REMARK INTER:                 -10.532
REMARK INTRA:                  -0.899
REMARK UNBOUND:                -0.844
REMARK SMILES O=C(Nc1nc2ccccc2n1C1CCCC1)c1coc(C2CCOCC2)n1
REMARK SMILES IDX 1 1 2 2 3 3 18 5 19 6 28 7 20 8 21 9 22 10 23 11 27 12 24 13
REMARK SMILES IDX 26 14 25 15 4 16 5 17 12 18 6 19 11 20 7 21 10 22 8 23 9 24
REMARK SMILES IDX 13 25 14 26 17 27 15 28 16 29
REMARK H PARENT 3 4
ROOT
ATOM      1  O   UNL     1       2.044  45.052  51.819  1.00  0.00    -0.267 OA
ATOM      2  C   UNL     1       2.327  44.447  52.888  1.00  0.00     0.279 C 
ATOM      3  N   UNL     1       3.564  43.724  53.016  1.00  0.00    -0.290 N 
ATOM      4  H   UNL     1       3.703  43.178  53.889  1.00  0.00     0.173 HD
ENDROOT
BRANCH   2   5
ATOM      5  C   UNL     1       1.377  44.477  54.010  1.00  0.00     0.167 A 
ATOM      6  C   UNL     1       1.617  44.966  55.276  1.00  0.00     0.231 A 
ATOM      7  N   UNL     1       0.119  44.005  53.943  1.00  0.00    -0.208 NA
ATOM      8  O   UNL     1       0.522  44.799  55.974  1.00  0.00    -0.448 OA
ATOM      9  C   UNL     1      -0.365  44.234  55.183  1.00  0.00     0.198 A 
BRANCH   9  10
ATOM     10  C   UNL     1      -1.750  43.849  55.637  1.00  0.00     0.080 C 
ATOM     11  C   UNL     1      -2.794  44.168  54.553  1.00  0.00     0.042 C 
ATOM     12  C   UNL     1      -2.140  44.502  56.979  1.00  0.00     0.042 C 
ATOM     13  C   UNL     1      -3.167  45.655  54.568  1.00  0.00     0.161 C 
ATOM     14  C   UNL     1      -2.618  45.953  56.797  1.00  0.00     0.161 C 
ATOM     15  O   UNL     1      -3.657  46.034  55.839  1.00  0.00    -0.381 OA
ENDBRANCH   9  10
ENDBRANCH   2   5
BRANCH   3  16
ATOM     16  C   UNL     1       4.606  43.731  52.025  1.00  0.00     0.211 A 
ATOM     17  N   UNL     1       4.674  42.808  51.030  1.00  0.00    -0.213 NA
ATOM     18  N   UNL     1       5.607  44.664  51.975  1.00  0.00    -0.307 N 
ATOM     19  C   UNL     1       5.758  43.186  50.335  1.00  0.00     0.091 A 
ATOM     20  C   UNL     1       6.324  44.298  50.890  1.00  0.00     0.070 A 
ATOM     21  C   UNL     1       6.281  42.577  49.196  1.00  0.00     0.031 A 
ATOM     22  C   UNL     1       7.466  44.889  50.335  1.00  0.00     0.028 A 
ATOM     23  C   UNL     1       7.429  43.145  48.618  1.00  0.00     0.002 A 
ATOM     24  C   UNL     1       8.019  44.297  49.185  1.00  0.00     0.002 A 
BRANCH  18  25
ATOM     25  C   UNL     1       5.865  45.817  52.863  1.00  0.00     0.091 C 
ATOM     26  C   UNL     1       4.842  46.935  52.678  1.00  0.00     0.025 C 
ATOM     27  C   UNL     1       5.861  45.435  54.348  1.00  0.00     0.025 C 
ATOM     28  C   UNL     1       4.667  47.553  54.055  1.00  0.00     0.002 C 
ATOM     29  C   UNL     1       4.973  46.452  55.062  1.00  0.00     0.002 C 
ENDBRANCH  18  25
ENDBRANCH   3  16
TORSDOF 4
ENDMDL
