MODEL 1
REMARK VINA RESULT:    -8.319      0.000      0.000
REMARK INTER + INTRA:         -12.220
REMARK INTER:                 -11.480
REMARK INTRA:                  -0.741
REMARK UNBOUND:                -0.741
REMARK SMILES CC[C@](C)(O)Cc1cn(Cc2cc(C(F)(F)F)ncc2F)nn1
REMARK SMILES IDX 7 1 8 2 9 3 22 4 23 5 6 6 3 7 4 8 2 9 1 10 5 11 10 13 11 14
REMARK SMILES IDX 12 15 20 16 13 17 19 18 18 19 21 20 14 21 15 22 16 23 17 24
REMARK H PARENT 5 12
ROOT
ATOM      1  C   UNL     1       6.442  46.797  53.773  1.00  0.00     0.086 A 
ATOM      2  C   UNL     1       6.051  46.026  52.700  1.00  0.00     0.135 A 
ATOM      3  N   UNL     1       4.861  46.512  52.312  1.00  0.00    -0.248 N 
ATOM      4  N   UNL     1       4.531  47.515  53.112  1.00  0.00    -0.067 NA
ATOM      5  N   UNL     1       5.484  47.717  54.010  1.00  0.00    -0.135 NA
ENDROOT
BRANCH   1   6
ATOM      6  C   UNL     1       7.721  46.673  54.552  1.00  0.00     0.094 C 
BRANCH   6   7
ATOM      7  C   UNL     1       8.853  47.618  54.056  1.00  0.00     0.067 C 
ATOM      8  C   UNL     1       9.887  46.831  53.218  1.00  0.00     0.042 C 
BRANCH   7   9
ATOM      9  C   UNL     1       9.540  48.304  55.269  1.00  0.00     0.032 C 
ATOM     10  C   UNL     1      10.739  47.530  55.822  1.00  0.00     0.007 C 
ENDBRANCH   7   9
BRANCH   7  11
ATOM     11  O   UNL     1       8.273  48.622  53.255  1.00  0.00    -0.390 OA
ATOM     12  H   UNL     1       7.291  48.606  53.402  1.00  0.00     0.211 HD
ENDBRANCH   7  11
ENDBRANCH   6   7
ENDBRANCH   1   6
BRANCH   3  13
ATOM     13  C   UNL     1       4.007  45.986  51.253  1.00  0.00     0.184 C 
BRANCH  13  14
ATOM     14  C   UNL     1       4.121  44.487  51.201  1.00  0.00     0.013 A 
ATOM     15  C   UNL     1       5.086  43.885  50.382  1.00  0.00     0.042 A 
ATOM     16  C   UNL     1       3.318  43.678  52.020  1.00  0.00     0.146 A 
ATOM     17  C   UNL     1       5.215  42.488  50.370  1.00  0.00     0.144 A 
ATOM     18  C   UNL     1       3.475  42.291  51.982  1.00  0.00     0.151 A 
ATOM     19  N   UNL     1       4.409  41.732  51.168  1.00  0.00    -0.249 NA
ATOM     20  F   UNL     1       2.393  44.225  52.850  1.00  0.00    -0.205 F 
BRANCH  17  21
ATOM     21  C   UNL     1       6.242  41.828  49.498  1.00  0.00     0.433 C 
ATOM     22  F   UNL     1       7.152  41.123  50.266  1.00  0.00    -0.165 F 
ATOM     23  F   UNL     1       6.919  42.789  48.771  1.00  0.00    -0.165 F 
ATOM     24  F   UNL     1       5.619  40.952  48.627  1.00  0.00    -0.165 F 
ENDBRANCH  17  21
ENDBRANCH  13  14
ENDBRANCH   3  13
TORSDOF 7
ENDMDL
MODEL 2
REMARK VINA RESULT:    -8.039      3.000      4.400
REMARK INTER + INTRA:         -11.834
REMARK INTER:                 -10.942
REMARK INTRA:                  -0.893
REMARK UNBOUND:                -0.741
REMARK SMILES CC[C@](C)(O)Cc1cn(Cc2cc(C(F)(F)F)ncc2F)nn1
REMARK SMILES IDX 7 1 8 2 9 3 22 4 23 5 6 6 3 7 4 8 2 9 1 10 5 11 10 13 11 14
REMARK SMILES IDX 12 15 20 16 13 17 19 18 18 19 21 20 14 21 15 22 16 23 17 24
REMARK H PARENT 5 12
ROOT
ATOM      1  C   UNL     1       6.459  46.842  53.721  1.00  0.00     0.086 A 
ATOM      2  C   UNL     1       5.497  46.846  52.735  1.00  0.00     0.135 A 
ATOM      3  N   UNL     1       4.440  47.490  53.255  1.00  0.00    -0.248 N 
ATOM      4  N   UNL     1       4.730  47.847  54.497  1.00  0.00    -0.067 NA
ATOM      5  N   UNL     1       5.962  47.470  54.806  1.00  0.00    -0.135 NA
ENDROOT
BRANCH   1   6
ATOM      6  C   UNL     1       7.842  46.263  53.627  1.00  0.00     0.094 C 
BRANCH   6   7
ATOM      7  C   UNL     1       8.903  47.257  53.073  1.00  0.00     0.067 C 
ATOM      8  C   UNL     1       9.096  47.052  51.552  1.00  0.00     0.042 C 
BRANCH   7   9
ATOM      9  C   UNL     1      10.249  47.070  53.825  1.00  0.00     0.032 C 
ATOM     10  C   UNL     1      10.193  47.465  55.303  1.00  0.00     0.007 C 
ENDBRANCH   7   9
BRANCH   7  11
ATOM     11  O   UNL     1       8.448  48.569  53.310  1.00  0.00    -0.390 OA
ATOM     12  H   UNL     1       9.235  49.135  53.528  1.00  0.00     0.211 HD
ENDBRANCH   7  11
ENDBRANCH   6   7
ENDBRANCH   1   6
BRANCH   3  13
ATOM     13  C   UNL     1       3.143  47.695  52.619  1.00  0.00     0.184 C 
BRANCH  13  14
ATOM     14  C   UNL     1       2.458  46.372  52.418  1.00  0.00     0.013 A 
ATOM     15  C   UNL     1       1.626  45.853  53.420  1.00  0.00     0.042 A 
ATOM     16  C   UNL     1       2.583  45.675  51.205  1.00  0.00     0.146 A 
ATOM     17  C   UNL     1       0.956  44.638  53.209  1.00  0.00     0.144 A 
ATOM     18  C   UNL     1       1.901  44.469  51.032  1.00  0.00     0.151 A 
ATOM     19  N   UNL     1       1.112  43.982  52.025  1.00  0.00    -0.249 NA
ATOM     20  F   UNL     1       3.354  46.159  50.198  1.00  0.00    -0.205 F 
BRANCH  17  21
ATOM     21  C   UNL     1       0.064  44.070  54.272  1.00  0.00     0.433 C 
ATOM     22  F   UNL     1      -0.113  42.711  54.084  1.00  0.00    -0.165 F 
ATOM     23  F   UNL     1      -1.170  44.693  54.225  1.00  0.00    -0.165 F 
ATOM     24  F   UNL     1       0.631  44.279  55.517  1.00  0.00    -0.165 F 
ENDBRANCH  17  21
ENDBRANCH  13  14
ENDBRANCH   3  13
TORSDOF 7
ENDMDL
MODEL 3
REMARK VINA RESULT:    -7.896      3.742      6.835
REMARK INTER + INTRA:         -11.637
REMARK INTER:                 -10.715
REMARK INTRA:                  -0.923
REMARK UNBOUND:                -0.741
REMARK SMILES CC[C@](C)(O)Cc1cn(Cc2cc(C(F)(F)F)ncc2F)nn1
REMARK SMILES IDX 7 1 8 2 9 3 22 4 23 5 6 6 3 7 4 8 2 9 1 10 5 11 10 13 11 14
REMARK SMILES IDX 12 15 20 16 13 17 19 18 18 19 21 20 14 21 15 22 16 23 17 24
REMARK H PARENT 5 12
ROOT
ATOM      1  C   UNL     1       2.645  43.569  51.468  1.00  0.00     0.086 A 
ATOM      2  C   UNL     1       2.989  44.856  51.119  1.00  0.00     0.135 A 
ATOM      3  N   UNL     1       4.326  44.923  51.231  1.00  0.00    -0.248 N 
ATOM      4  N   UNL     1       4.776  43.748  51.642  1.00  0.00    -0.067 NA
ATOM      5  N   UNL     1       3.770  42.897  51.787  1.00  0.00    -0.135 NA
ENDROOT
BRANCH   1   6
ATOM      6  C   UNL     1       1.264  42.978  51.480  1.00  0.00     0.094 C 
BRANCH   6   7
ATOM      7  C   UNL     1       0.682  42.768  52.908  1.00  0.00     0.067 C 
ATOM      8  C   UNL     1      -0.604  41.912  52.849  1.00  0.00     0.042 C 
BRANCH   7   9
ATOM      9  C   UNL     1       0.395  44.143  53.572  1.00  0.00     0.032 C 
ATOM     10  C   UNL     1       1.254  44.426  54.808  1.00  0.00     0.007 C 
ENDBRANCH   7   9
BRANCH   7  11
ATOM     11  O   UNL     1       1.649  42.099  53.687  1.00  0.00    -0.390 OA
ATOM     12  H   UNL     1       1.458  41.125  53.647  1.00  0.00     0.211 HD
ENDBRANCH   7  11
ENDBRANCH   6   7
ENDBRANCH   1   6
BRANCH   3  13
ATOM     13  C   UNL     1       5.160  46.103  51.032  1.00  0.00     0.184 C 
BRANCH  13  14
ATOM     14  C   UNL     1       5.923  46.408  52.291  1.00  0.00     0.013 A 
ATOM     15  C   UNL     1       7.324  46.473  52.264  1.00  0.00     0.042 A 
ATOM     16  C   UNL     1       5.248  46.699  53.488  1.00  0.00     0.146 A 
ATOM     17  C   UNL     1       8.028  46.799  53.433  1.00  0.00     0.144 A 
ATOM     18  C   UNL     1       5.983  47.020  54.631  1.00  0.00     0.151 A 
ATOM     19  N   UNL     1       7.341  47.062  54.580  1.00  0.00    -0.249 NA
ATOM     20  F   UNL     1       3.892  46.677  53.547  1.00  0.00    -0.205 F 
BRANCH  17  21
ATOM     21  C   UNL     1       9.526  46.871  53.420  1.00  0.00     0.433 C 
ATOM     22  F   UNL     1      10.075  45.639  53.730  1.00  0.00    -0.165 F 
ATOM     23  F   UNL     1       9.954  47.799  54.351  1.00  0.00    -0.165 F 
ATOM     24  F   UNL     1       9.962  47.253  52.164  1.00  0.00    -0.165 F 
ENDBRANCH  17  21
ENDBRANCH  13  14
ENDBRANCH   3  13
TORSDOF 7
ENDMDL
MODEL 4
REMARK VINA RESULT:    -7.849      1.894      2.491
REMARK INTER + INTRA:         -11.572
REMARK INTER:                 -10.769
REMARK INTRA:                  -0.803
REMARK UNBOUND:                -0.741
REMARK SMILES CC[C@](C)(O)Cc1cn(Cc2cc(C(F)(F)F)ncc2F)nn1
REMARK SMILES IDX 7 1 8 2 9 3 22 4 23 5 6 6 3 7 4 8 2 9 1 10 5 11 10 13 11 14
REMARK SMILES IDX 12 15 20 16 13 17 19 18 18 19 21 20 14 21 15 22 16 23 17 24
REMARK H PARENT 5 12
ROOT
ATOM      1  C   UNL     1       6.016  46.709  54.167  1.00  0.00     0.086 A 
ATOM      2  C   UNL     1       5.341  45.540  54.440  1.00  0.00     0.135 A 
ATOM      3  N   UNL     1       4.047  45.795  54.185  1.00  0.00    -0.248 N 
ATOM      4  N   UNL     1       3.932  47.055  53.794  1.00  0.00    -0.067 NA
ATOM      5  N   UNL     1       5.123  47.636  53.766  1.00  0.00    -0.135 NA
ENDROOT
BRANCH   1   6
ATOM      6  C   UNL     1       7.498  46.938  54.269  1.00  0.00     0.094 C 
BRANCH   6   7
ATOM      7  C   UNL     1       8.172  47.305  52.916  1.00  0.00     0.067 C 
ATOM      8  C   UNL     1       7.641  46.399  51.782  1.00  0.00     0.042 C 
BRANCH   7   9
ATOM      9  C   UNL     1       9.715  47.179  53.040  1.00  0.00     0.032 C 
ATOM     10  C   UNL     1      10.349  46.267  51.986  1.00  0.00     0.007 C 
ENDBRANCH   7   9
BRANCH   7  11
ATOM     11  O   UNL     1       7.865  48.649  52.619  1.00  0.00    -0.390 OA
ATOM     12  H   UNL     1       8.545  48.986  51.976  1.00  0.00     0.211 HD
ENDBRANCH   7  11
ENDBRANCH   6   7
ENDBRANCH   1   6
BRANCH   3  13
ATOM     13  C   UNL     1       2.923  44.887  54.387  1.00  0.00     0.184 C 
BRANCH  13  14
ATOM     14  C   UNL     1       2.557  44.231  53.084  1.00  0.00     0.013 A 
ATOM     15  C   UNL     1       3.436  43.316  52.487  1.00  0.00     0.042 A 
ATOM     16  C   UNL     1       1.309  44.470  52.486  1.00  0.00     0.146 A 
ATOM     17  C   UNL     1       3.069  42.677  51.293  1.00  0.00     0.144 A 
ATOM     18  C   UNL     1       0.980  43.814  51.298  1.00  0.00     0.151 A 
ATOM     19  N   UNL     1       1.856  42.942  50.734  1.00  0.00    -0.249 NA
ATOM     20  F   UNL     1       0.417  45.325  53.049  1.00  0.00    -0.205 F 
BRANCH  17  21
ATOM     21  C   UNL     1       3.999  41.696  50.643  1.00  0.00     0.433 C 
ATOM     22  F   UNL     1       4.879  42.347  49.796  1.00  0.00    -0.165 F 
ATOM     23  F   UNL     1       3.269  40.779  49.910  1.00  0.00    -0.165 F 
ATOM     24  F   UNL     1       4.725  41.028  51.613  1.00  0.00    -0.165 F 
ENDBRANCH  17  21
ENDBRANCH  13  14
ENDBRANCH   3  13
TORSDOF 7
ENDMDL
MODEL 5
REMARK VINA RESULT:    -7.490      3.790      6.403
REMARK INTER + INTRA:         -11.076
REMARK INTER:                 -10.500
REMARK INTRA:                  -0.576
REMARK UNBOUND:                -0.741
REMARK SMILES CC[C@](C)(O)Cc1cn(Cc2cc(C(F)(F)F)ncc2F)nn1
REMARK SMILES IDX 7 1 8 2 9 3 22 4 23 5 6 6 3 7 4 8 2 9 1 10 5 11 10 13 11 14
REMARK SMILES IDX 12 15 20 16 13 17 19 18 18 19 21 20 14 21 15 22 16 23 17 24
REMARK H PARENT 5 12
ROOT
ATOM      1  C   UNL     1       2.312  45.036  54.236  1.00  0.00     0.086 A 
ATOM      2  C   UNL     1       2.684  45.981  53.305  1.00  0.00     0.135 A 
ATOM      3  N   UNL     1       3.894  46.419  53.689  1.00  0.00    -0.248 N 
ATOM      4  N   UNL     1       4.239  45.790  54.802  1.00  0.00    -0.067 NA
ATOM      5  N   UNL     1       3.293  44.931  55.155  1.00  0.00    -0.135 NA
ENDROOT
BRANCH   1   6
ATOM      6  C   UNL     1       1.045  44.228  54.241  1.00  0.00     0.094 C 
BRANCH   6   7
ATOM      7  C   UNL     1       0.957  43.190  53.085  1.00  0.00     0.067 C 
ATOM      8  C   UNL     1       0.074  41.990  53.499  1.00  0.00     0.042 C 
BRANCH   7   9
ATOM      9  C   UNL     1       2.382  42.710  52.693  1.00  0.00     0.032 C 
ATOM     10  C   UNL     1       2.679  42.811  51.194  1.00  0.00     0.007 C 
ENDBRANCH   7   9
BRANCH   7  11
ATOM     11  O   UNL     1       0.384  43.823  51.963  1.00  0.00    -0.390 OA
ATOM     12  H   UNL     1       0.731  43.377  51.146  1.00  0.00     0.211 HD
ENDBRANCH   7  11
ENDBRANCH   6   7
ENDBRANCH   1   6
BRANCH   3  13
ATOM     13  C   UNL     1       4.680  47.474  53.060  1.00  0.00     0.184 C 
BRANCH  13  14
ATOM     14  C   UNL     1       5.872  46.879  52.363  1.00  0.00     0.013 A 
ATOM     15  C   UNL     1       7.158  47.069  52.886  1.00  0.00     0.042 A 
ATOM     16  C   UNL     1       5.708  46.070  51.227  1.00  0.00     0.146 A 
ATOM     17  C   UNL     1       8.261  46.476  52.254  1.00  0.00     0.144 A 
ATOM     18  C   UNL     1       6.830  45.496  50.625  1.00  0.00     0.151 A 
ATOM     19  N   UNL     1       8.067  45.708  51.145  1.00  0.00    -0.249 NA
ATOM     20  F   UNL     1       4.476  45.836  50.708  1.00  0.00    -0.205 F 
BRANCH  17  21
ATOM     21  C   UNL     1       9.644  46.671  52.801  1.00  0.00     0.433 C 
ATOM     22  F   UNL     1       9.937  45.698  53.741  1.00  0.00    -0.165 F 
ATOM     23  F   UNL     1       9.736  47.913  53.400  1.00  0.00    -0.165 F 
ATOM     24  F   UNL     1      10.567  46.592  51.773  1.00  0.00    -0.165 F 
ENDBRANCH  17  21
ENDBRANCH  13  14
ENDBRANCH   3  13
TORSDOF 7
ENDMDL
