MODEL 1
REMARK VINA RESULT:    -8.178      0.000      0.000
REMARK INTER + INTRA:         -11.102
REMARK INTER:                 -10.090
REMARK INTRA:                  -1.012
REMARK UNBOUND:                -1.012
REMARK SMILES Cn1ncc(C(=O)N2CCC(Oc3ccc(Cl)cc3)CC2)c1C(F)F
REMARK SMILES IDX 6 1 7 2 8 3 9 4 10 5 11 6 20 7 21 8 5 9 2 10 3 11 22 12 4 13
REMARK SMILES IDX 1 14 23 15 24 16 25 17 12 18 13 19 14 20 19 21 15 22 18 23
REMARK SMILES IDX 16 24 17 25
REMARK H PARENT
ROOT
ATOM      1  C   UNL     1       2.227  43.844  53.186  1.00  0.00     0.257 C 
ATOM      2  O   UNL     1       1.885  42.634  53.095  1.00  0.00    -0.269 OA
ATOM      3  N   UNL     1       2.994  44.444  52.129  1.00  0.00    -0.338 N 
ATOM      4  C   UNL     1       4.048  43.660  51.473  1.00  0.00     0.123 C 
ATOM      5  C   UNL     1       5.262  44.538  51.106  1.00  0.00     0.067 C 
ATOM      6  C   UNL     1       4.919  46.027  50.878  1.00  0.00     0.176 C 
ATOM      7  C   UNL     1       3.460  46.184  50.417  1.00  0.00     0.067 C 
ATOM      8  C   UNL     1       2.502  45.682  51.504  1.00  0.00     0.123 C 
ENDROOT
BRANCH   1   9
ATOM      9  C   UNL     1       1.863  44.618  54.391  1.00  0.00     0.087 A 
ATOM     10  N   UNL     1       0.758  45.569  56.059  1.00  0.00    -0.266 N 
ATOM     11  N   UNL     1       2.048  45.744  56.307  1.00  0.00    -0.180 NA
ATOM     12  C   UNL     1       0.602  44.890  54.900  1.00  0.00     0.117 A 
ATOM     13  C   UNL     1       2.743  45.172  55.305  1.00  0.00     0.149 A 
ATOM     14  C   UNL     1      -0.297  46.055  56.941  1.00  0.00     0.174 C 
BRANCH  12  15
ATOM     15  C   UNL     1      -0.718  44.485  54.306  1.00  0.00     0.391 C 
ATOM     16  F   UNL     1      -0.788  44.894  52.987  1.00  0.00    -0.203 F 
ATOM     17  F   UNL     1      -0.855  43.110  54.371  1.00  0.00    -0.203 F 
ENDBRANCH  12  15
ENDBRANCH   1   9
BRANCH   6  18
ATOM     18  O   UNL     1       5.137  46.745  52.097  1.00  0.00    -0.490 OA
BRANCH  18  19
ATOM     19  C   UNL     1       6.378  46.950  52.722  1.00  0.00     0.119 A 
ATOM     20  C   UNL     1       6.471  46.698  54.097  1.00  0.00     0.048 A 
ATOM     21  C   UNL     1       7.524  47.383  52.025  1.00  0.00     0.048 A 
ATOM     22  C   UNL     1       7.680  46.887  54.774  1.00  0.00     0.024 A 
ATOM     23  C   UNL     1       8.732  47.571  52.705  1.00  0.00     0.024 A 
ATOM     24  C   UNL     1       8.811  47.325  54.079  1.00  0.00     0.041 A 
ATOM     25  Cl  UNL     1      10.327  47.563  54.928  1.00  0.00    -0.084 Cl
ENDBRANCH  18  19
ENDBRANCH   6  18
TORSDOF 4
ENDMDL
MODEL 2
REMARK VINA RESULT:    -7.896      3.353      5.071
REMARK INTER + INTRA:         -10.755
REMARK INTER:                 -10.002
REMARK INTRA:                  -0.753
REMARK UNBOUND:                -1.012
REMARK SMILES Cn1ncc(C(=O)N2CCC(Oc3ccc(Cl)cc3)CC2)c1C(F)F
REMARK SMILES IDX 6 1 7 2 8 3 9 4 10 5 11 6 20 7 21 8 5 9 2 10 3 11 22 12 4 13
REMARK SMILES IDX 1 14 23 15 24 16 25 17 12 18 13 19 14 20 19 21 15 22 18 23
REMARK SMILES IDX 16 24 17 25
REMARK H PARENT
ROOT
ATOM      1  C   UNL     1       5.059  47.431  53.972  1.00  0.00     0.257 C 
ATOM      2  O   UNL     1       4.867  48.237  54.922  1.00  0.00    -0.269 OA
ATOM      3  N   UNL     1       6.399  47.177  53.520  1.00  0.00    -0.338 N 
ATOM      4  C   UNL     1       7.359  48.287  53.457  1.00  0.00     0.123 C 
ATOM      5  C   UNL     1       8.301  48.151  52.243  1.00  0.00     0.067 C 
ATOM      6  C   UNL     1       8.516  46.696  51.769  1.00  0.00     0.176 C 
ATOM      7  C   UNL     1       8.318  45.711  52.933  1.00  0.00     0.067 C 
ATOM      8  C   UNL     1       6.879  45.787  53.457  1.00  0.00     0.123 C 
ENDROOT
BRANCH   1   9
ATOM      9  C   UNL     1       3.904  46.788  53.314  1.00  0.00     0.087 A 
ATOM     10  N   UNL     1       2.087  45.592  52.890  1.00  0.00    -0.266 N 
ATOM     11  N   UNL     1       2.310  46.340  51.820  1.00  0.00    -0.180 NA
ATOM     12  C   UNL     1       3.036  45.832  53.823  1.00  0.00     0.117 A 
ATOM     13  C   UNL     1       3.411  47.079  52.054  1.00  0.00     0.149 A 
ATOM     14  C   UNL     1       0.967  44.664  52.996  1.00  0.00     0.174 C 
BRANCH  12  15
ATOM     15  C   UNL     1       3.099  45.187  55.179  1.00  0.00     0.391 C 
ATOM     16  F   UNL     1       4.380  44.730  55.426  1.00  0.00    -0.203 F 
ATOM     17  F   UNL     1       2.741  46.107  56.148  1.00  0.00    -0.203 F 
ENDBRANCH  12  15
ENDBRANCH   1   9
BRANCH   6  18
ATOM     18  O   UNL     1       7.591  46.412  50.713  1.00  0.00    -0.490 OA
BRANCH  18  19
ATOM     19  C   UNL     1       7.190  45.135  50.290  1.00  0.00     0.119 A 
ATOM     20  C   UNL     1       5.884  44.723  50.588  1.00  0.00     0.048 A 
ATOM     21  C   UNL     1       8.037  44.264  49.576  1.00  0.00     0.048 A 
ATOM     22  C   UNL     1       5.430  43.461  50.197  1.00  0.00     0.024 A 
ATOM     23  C   UNL     1       7.580  43.001  49.185  1.00  0.00     0.024 A 
ATOM     24  C   UNL     1       6.277  42.597  49.496  1.00  0.00     0.041 A 
ATOM     25  Cl  UNL     1       5.708  41.013  49.004  1.00  0.00    -0.084 Cl
ENDBRANCH  18  19
ENDBRANCH   6  18
TORSDOF 4
ENDMDL
MODEL 3
REMARK VINA RESULT:    -7.565      4.440      7.218
REMARK INTER + INTRA:         -10.347
REMARK INTER:                 -10.153
REMARK INTRA:                  -0.194
REMARK UNBOUND:                -1.012
REMARK SMILES Cn1ncc(C(=O)N2CCC(Oc3ccc(Cl)cc3)CC2)c1C(F)F
REMARK SMILES IDX 6 1 7 2 8 3 9 4 10 5 11 6 20 7 21 8 5 9 2 10 3 11 22 12 4 13
REMARK SMILES IDX 1 14 23 15 24 16 25 17 12 18 13 19 14 20 19 21 15 22 18 23
REMARK SMILES IDX 16 24 17 25
REMARK H PARENT
ROOT
ATOM      1  C   UNL     1       6.388  45.391  51.466  1.00  0.00     0.257 C 
ATOM      2  O   UNL     1       7.513  45.717  51.002  1.00  0.00    -0.269 OA
ATOM      3  N   UNL     1       5.760  46.227  52.453  1.00  0.00    -0.338 N 
ATOM      4  C   UNL     1       6.585  46.853  53.493  1.00  0.00     0.123 C 
ATOM      5  C   UNL     1       5.844  46.910  54.845  1.00  0.00     0.067 C 
ATOM      6  C   UNL     1       4.304  46.944  54.721  1.00  0.00     0.176 C 
ATOM      7  C   UNL     1       3.882  47.565  53.379  1.00  0.00     0.067 C 
ATOM      8  C   UNL     1       4.391  46.709  52.212  1.00  0.00     0.123 C 
ENDROOT
BRANCH   1   9
ATOM      9  C   UNL     1       5.747  44.138  51.017  1.00  0.00     0.087 A 
ATOM     10  N   UNL     1       5.297  42.219  50.008  1.00  0.00    -0.266 N 
ATOM     11  N   UNL     1       4.378  42.379  50.948  1.00  0.00    -0.180 NA
ATOM     12  C   UNL     1       6.148  43.268  50.014  1.00  0.00     0.117 A 
ATOM     13  C   UNL     1       4.631  43.542  51.579  1.00  0.00     0.149 A 
ATOM     14  C   UNL     1       5.340  41.059  49.124  1.00  0.00     0.174 C 
BRANCH  12  15
ATOM     15  C   UNL     1       7.335  43.426  49.105  1.00  0.00     0.391 C 
ATOM     16  F   UNL     1       8.384  42.646  49.556  1.00  0.00    -0.203 F 
ATOM     17  F   UNL     1       6.992  43.042  47.821  1.00  0.00    -0.203 F 
ENDBRANCH  12  15
ENDBRANCH   1   9
BRANCH   6  18
ATOM     18  O   UNL     1       3.801  45.608  54.833  1.00  0.00    -0.490 OA
BRANCH  18  19
ATOM     19  C   UNL     1       2.457  45.247  55.016  1.00  0.00     0.119 A 
ATOM     20  C   UNL     1       1.846  44.462  54.029  1.00  0.00     0.048 A 
ATOM     21  C   UNL     1       1.708  45.630  56.147  1.00  0.00     0.048 A 
ATOM     22  C   UNL     1       0.509  44.075  54.155  1.00  0.00     0.024 A 
ATOM     23  C   UNL     1       0.370  45.241  56.271  1.00  0.00     0.024 A 
ATOM     24  C   UNL     1      -0.231  44.465  55.275  1.00  0.00     0.041 A 
ATOM     25  Cl  UNL     1      -1.909  43.979  55.433  1.00  0.00    -0.084 Cl
ENDBRANCH  18  19
ENDBRANCH   6  18
TORSDOF 4
ENDMDL
MODEL 4
REMARK VINA RESULT:    -7.494      4.499      7.274
REMARK INTER + INTRA:         -10.259
REMARK INTER:                  -9.829
REMARK INTRA:                  -0.430
REMARK UNBOUND:                -1.012
REMARK SMILES Cn1ncc(C(=O)N2CCC(Oc3ccc(Cl)cc3)CC2)c1C(F)F
REMARK SMILES IDX 6 1 7 2 8 3 9 4 10 5 11 6 20 7 21 8 5 9 2 10 3 11 22 12 4 13
REMARK SMILES IDX 1 14 23 15 24 16 25 17 12 18 13 19 14 20 19 21 15 22 18 23
REMARK SMILES IDX 16 24 17 25
REMARK H PARENT
ROOT
ATOM      1  C   UNL     1       5.972  45.740  51.606  1.00  0.00     0.257 C 
ATOM      2  O   UNL     1       6.409  46.058  50.467  1.00  0.00    -0.269 OA
ATOM      3  N   UNL     1       4.825  44.881  51.709  1.00  0.00    -0.338 N 
ATOM      4  C   UNL     1       3.717  45.045  50.760  1.00  0.00     0.123 C 
ATOM      5  C   UNL     1       2.352  44.801  51.436  1.00  0.00     0.067 C 
ATOM      6  C   UNL     1       2.411  43.854  52.656  1.00  0.00     0.176 C 
ATOM      7  C   UNL     1       3.597  42.883  52.532  1.00  0.00     0.067 C 
ATOM      8  C   UNL     1       4.920  43.658  52.522  1.00  0.00     0.123 C 
ENDROOT
BRANCH   1   9
ATOM      9  C   UNL     1       6.623  46.282  52.816  1.00  0.00     0.087 A 
ATOM     10  N   UNL     1       8.085  47.117  54.256  1.00  0.00    -0.266 N 
ATOM     11  N   UNL     1       6.896  47.187  54.836  1.00  0.00    -0.180 NA
ATOM     12  C   UNL     1       7.964  46.570  53.026  1.00  0.00     0.117 A 
ATOM     13  C   UNL     1       5.987  46.685  53.978  1.00  0.00     0.149 A 
ATOM     14  C   UNL     1       9.312  47.580  54.895  1.00  0.00     0.174 C 
BRANCH  12  15
ATOM     15  C   UNL     1       9.095  46.353  52.060  1.00  0.00     0.391 C 
ATOM     16  F   UNL     1       9.538  47.568  51.569  1.00  0.00    -0.203 F 
ATOM     17  F   UNL     1      10.136  45.706  52.701  1.00  0.00    -0.203 F 
ENDBRANCH  12  15
ENDBRANCH   1   9
BRANCH   6  18
ATOM     18  O   UNL     1       2.531  44.640  53.846  1.00  0.00    -0.490 OA
BRANCH  18  19
ATOM     19  C   UNL     1       1.499  44.919  54.756  1.00  0.00     0.119 A 
ATOM     20  C   UNL     1       0.180  44.678  54.349  1.00  0.00     0.048 A 
ATOM     21  C   UNL     1       1.735  45.418  56.053  1.00  0.00     0.048 A 
ATOM     22  C   UNL     1      -0.889  44.941  55.209  1.00  0.00     0.024 A 
ATOM     23  C   UNL     1       0.663  45.680  56.912  1.00  0.00     0.024 A 
ATOM     24  C   UNL     1      -0.650  45.443  56.492  1.00  0.00     0.041 A 
ATOM     25  Cl  UNL     1      -1.992  45.773  57.572  1.00  0.00    -0.084 Cl
ENDBRANCH  18  19
ENDBRANCH   6  18
TORSDOF 4
ENDMDL
MODEL 5
REMARK VINA RESULT:    -7.389      3.733      6.799
REMARK INTER + INTRA:         -10.129
REMARK INTER:                  -9.439
REMARK INTRA:                  -0.690
REMARK UNBOUND:                -1.012
REMARK SMILES Cn1ncc(C(=O)N2CCC(Oc3ccc(Cl)cc3)CC2)c1C(F)F
REMARK SMILES IDX 6 1 7 2 8 3 9 4 10 5 11 6 20 7 21 8 5 9 2 10 3 11 22 12 4 13
REMARK SMILES IDX 1 14 23 15 24 16 25 17 12 18 13 19 14 20 19 21 15 22 18 23
REMARK SMILES IDX 16 24 17 25
REMARK H PARENT
ROOT
ATOM      1  C   UNL     1       3.268  45.931  51.626  1.00  0.00     0.257 C 
ATOM      2  O   UNL     1       3.161  46.415  50.467  1.00  0.00    -0.269 OA
ATOM      3  N   UNL     1       2.321  44.948  52.073  1.00  0.00    -0.338 N 
ATOM      4  C   UNL     1       0.907  45.093  51.704  1.00  0.00     0.123 C 
ATOM      5  C   UNL     1      -0.026  44.632  52.844  1.00  0.00     0.067 C 
ATOM      6  C   UNL     1       0.597  43.572  53.780  1.00  0.00     0.176 C 
ATOM      7  C   UNL     1       1.665  42.753  53.037  1.00  0.00     0.067 C 
ATOM      8  C   UNL     1       2.816  43.662  52.589  1.00  0.00     0.123 C 
ENDROOT
BRANCH   1   9
ATOM      9  C   UNL     1       4.344  46.407  52.520  1.00  0.00     0.087 A 
ATOM     10  N   UNL     1       6.309  46.834  53.448  1.00  0.00    -0.266 N 
ATOM     11  N   UNL     1       5.414  47.560  54.101  1.00  0.00    -0.180 NA
ATOM     12  C   UNL     1       5.699  46.115  52.480  1.00  0.00     0.117 A 
ATOM     13  C   UNL     1       4.207  47.319  53.552  1.00  0.00     0.149 A 
ATOM     14  C   UNL     1       7.733  46.847  53.768  1.00  0.00     0.174 C 
BRANCH  12  15
ATOM     15  C   UNL     1       6.395  45.192  51.518  1.00  0.00     0.391 C 
ATOM     16  F   UNL     1       5.847  43.925  51.598  1.00  0.00    -0.203 F 
ATOM     17  F   UNL     1       6.259  45.675  50.229  1.00  0.00    -0.203 F 
ENDBRANCH  12  15
ENDBRANCH   1   9
BRANCH   6  18
ATOM     18  O   UNL     1       1.172  44.234  54.912  1.00  0.00    -0.490 OA
BRANCH  18  19
ATOM     19  C   UNL     1       0.484  45.043  55.830  1.00  0.00     0.119 A 
ATOM     20  C   UNL     1       1.235  45.731  56.792  1.00  0.00     0.048 A 
ATOM     21  C   UNL     1      -0.917  45.196  55.816  1.00  0.00     0.048 A 
ATOM     22  C   UNL     1       0.604  46.549  57.734  1.00  0.00     0.024 A 
ATOM     23  C   UNL     1      -1.545  46.015  56.760  1.00  0.00     0.024 A 
ATOM     24  C   UNL     1      -0.786  46.691  57.721  1.00  0.00     0.041 A 
ATOM     25  Cl  UNL     1      -1.578  47.716  58.904  1.00  0.00    -0.084 Cl
ENDBRANCH  18  19
ENDBRANCH   6  18
TORSDOF 4
ENDMDL
