ligand_73_conformer_1_docked
     RDKit          3D

 41 43  0  0  0  0  0  0  0  0999 V2000
    3.5280   46.0870   55.7020 C   0  0  0  0  0  0  0  0  0  0  0  0
    4.3330   46.1030   54.4860 N   0  0  0  0  0  0  0  0  0  0  0  0
    5.6550   46.1490   54.4920 N   0  0  0  0  0  0  0  0  0  0  0  0
    6.0740   46.1770   53.2090 C   0  0  0  0  0  0  0  0  0  0  0  0
    7.5030   46.2430   52.8130 C   0  0  0  0  0  0  0  0  0  0  0  0
    7.8830   45.9100   51.5010 C   0  0  0  0  0  0  0  0  0  0  0  0
    9.2260   45.9680   51.1140 C   0  0  0  0  0  0  0  0  0  0  0  0
   10.2030   46.3600   52.0310 C   0  0  0  0  0  0  0  0  0  0  0  0
   11.5040   46.4170   51.6540 F   0  0  0  0  0  0  0  0  0  0  0  0
    9.8380   46.6960   53.3370 C   0  0  0  0  0  0  0  0  0  0  0  0
    8.4980   46.6390   53.7290 C   0  0  0  0  0  0  0  0  0  0  0  0
    4.9730   46.1580   52.3630 C   0  0  0  0  0  0  0  0  0  0  0  0
    3.8860   46.1040   53.2120 C   0  0  0  0  0  0  0  0  0  0  0  0
    2.4680   46.1370   52.8020 C   0  0  0  0  0  0  0  0  0  0  0  0
    1.9940   47.2060   52.3300 O   0  0  0  0  0  0  0  0  0  0  0  0
    1.6240   44.9770   52.9170 N   0  0  0  0  0  0  0  0  0  0  0  0
    2.1500   43.6560   53.2190 C   0  0  0  0  0  0  0  0  0  0  0  0
    1.0460   42.6720   52.8480 C   0  0  0  0  0  0  0  0  0  0  0  0
   -0.2480   43.5060   52.7620 C   0  0  2  0  0  0  0  0  0  0  0  0
   -0.9260   43.4680   54.0800 C   0  0  0  0  0  0  0  0  0  0  0  0
   -1.4540   43.4400   55.1090 N   0  0  0  0  0  0  0  0  0  0  0  0
   -1.1750   43.0000   51.6660 C   0  0  0  0  0  0  0  0  0  0  0  0
   -1.0230   43.4430   50.3150 N   0  0  0  0  0  0  0  0  0  0  0  0
   -2.0930   42.1750   51.9340 O   0  0  0  0  0  0  0  0  0  0  0  0
    0.2330   44.9440   52.4880 C   0  0  0  0  0  0  0  0  0  0  0  0
    4.1902   46.1002   56.5803 H   0  0  0  0  0  0  0  0  0  0  0  0
    2.8755   46.9724   55.7214 H   0  0  0  0  0  0  0  0  0  0  0  0
    2.9112   45.1764   55.7214 H   0  0  0  0  0  0  0  0  0  0  0  0
    7.1182   45.6014   50.7731 H   0  0  0  0  0  0  0  0  0  0  0  0
    9.5128   45.7043   50.0853 H   0  0  0  0  0  0  0  0  0  0  0  0
   10.6078   47.0064   54.0589 H   0  0  0  0  0  0  0  0  0  0  0  0
    8.2181   46.9049   54.7590 H   0  0  0  0  0  0  0  0  0  0  0  0
    4.9682   46.1809   51.2632 H   0  0  0  0  0  0  0  0  0  0  0  0
    3.0540   43.4589   52.6241 H   0  0  0  0  0  0  0  0  0  0  0  0
    2.4321   43.5660   54.2784 H   0  0  0  0  0  0  0  0  0  0  0  0
    1.2631   42.2005   51.8782 H   0  0  0  0  0  0  0  0  0  0  0  0
    0.9583   41.8635   53.5887 H   0  0  0  0  0  0  0  0  0  0  0  0
   -0.2780   44.1230   50.0450 H   0  0  0  0  0  0  0  0  0  0  0  0
   -1.6670   43.0890   49.5720 H   0  0  0  0  0  0  0  0  0  0  0  0
    0.1557   45.1776   51.4159 H   0  0  0  0  0  0  0  0  0  0  0  0
   -0.3768   45.6872   53.0226 H   0  0  0  0  0  0  0  0  0  0  0  0
  1  2  1  0
  2  3  1  0
  3  4  2  0
  4  5  1  0
  5  6  2  0
  6  7  1  0
  7  8  2  0
  8  9  1  0
  8 10  1  0
 10 11  2  0
  4 12  1  0
 12 13  2  0
 13 14  1  0
 14 15  2  0
 14 16  1  0
 16 17  1  0
 17 18  1  0
 18 19  1  0
 19 20  1  1
 20 21  3  0
 19 22  1  0
 22 23  1  0
 22 24  2  0
 19 25  1  0
 13  2  1  0
 25 16  1  0
 11  5  1  0
  1 26  1  0
  1 27  1  0
  1 28  1  0
  6 29  1  0
  7 30  1  0
 10 31  1  0
 11 32  1  0
 12 33  1  0
 17 34  1  0
 17 35  1  0
 18 36  1  0
 18 37  1  0
 23 38  1  0
 23 39  1  0
 25 40  1  0
 25 41  1  0
M  END
>  <meeko>  (1) 
{"is_sidechain": [false], "free_energy": -8.217, "intermolecular_energy": -10.138, "internal_energy": -0.665}

$$$$
ligand_73_conformer_1_docked
     RDKit          3D

 41 43  0  0  0  0  0  0  0  0999 V2000
    5.0560   43.6290   50.5150 C   0  0  0  0  0  0  0  0  0  0  0  0
    5.4950   44.7980   51.2670 N   0  0  0  0  0  0  0  0  0  0  0  0
    6.6880   44.8910   51.8310 N   0  0  0  0  0  0  0  0  0  0  0  0
    6.7560   46.0820   52.4630 C   0  0  0  0  0  0  0  0  0  0  0  0
    7.9430   46.5410   53.2250 C   0  0  0  0  0  0  0  0  0  0  0  0
    7.7760   47.1960   54.4590 C   0  0  0  0  0  0  0  0  0  0  0  0
    8.8860   47.6330   55.1880 C   0  0  0  0  0  0  0  0  0  0  0  0
   10.1750   47.4220   54.6950 C   0  0  0  0  0  0  0  0  0  0  0  0
   11.2510   47.8460   55.4030 F   0  0  0  0  0  0  0  0  0  0  0  0
   10.3560   46.7710   53.4720 C   0  0  0  0  0  0  0  0  0  0  0  0
    9.2490   46.3320   52.7390 C   0  0  0  0  0  0  0  0  0  0  0  0
    5.5560   46.7610   52.2980 C   0  0  0  0  0  0  0  0  0  0  0  0
    4.7840   45.9160   51.5260 C   0  0  0  0  0  0  0  0  0  0  0  0
    3.3810   46.1490   51.1300 C   0  0  0  0  0  0  0  0  0  0  0  0
    3.1440   46.8050   50.0800 O   0  0  0  0  0  0  0  0  0  0  0  0
    2.2840   45.6340   51.9060 N   0  0  0  0  0  0  0  0  0  0  0  0
    2.0410   46.0430   53.2810 C   0  0  0  0  0  0  0  0  0  0  0  0
    1.0900   45.0030   53.8640 C   0  0  0  0  0  0  0  0  0  0  0  0
    0.4690   44.2770   52.6530 C   0  0  2  0  0  0  0  0  0  0  0  0
   -0.8010   44.9520   52.2940 C   0  0  0  0  0  0  0  0  0  0  0  0
   -1.7920   45.4800   52.0130 N   0  0  0  0  0  0  0  0  0  0  0  0
    0.2310   42.8010   52.9400 C   0  0  0  0  0  0  0  0  0  0  0  0
    1.2380   42.0050   53.5700 N   0  0  0  0  0  0  0  0  0  0  0  0
   -0.8650   42.2570   52.6290 O   0  0  0  0  0  0  0  0  0  0  0  0
    1.4850   44.4820   51.5130 C   0  0  0  0  0  0  0  0  0  0  0  0
    4.7575   42.8341   51.2143 H   0  0  0  0  0  0  0  0  0  0  0  0
    4.1988   43.9011   49.8816 H   0  0  0  0  0  0  0  0  0  0  0  0
    5.8804   43.2696   49.8816 H   0  0  0  0  0  0  0  0  0  0  0  0
    6.7633   47.3657   54.8536 H   0  0  0  0  0  0  0  0  0  0  0  0
    8.7435   48.1439   56.1517 H   0  0  0  0  0  0  0  0  0  0  0  0
   11.3719   46.6034   53.0848 H   0  0  0  0  0  0  0  0  0  0  0  0
    9.3987   45.8203   51.7769 H   0  0  0  0  0  0  0  0  0  0  0  0
    5.2820   47.7502   52.6936 H   0  0  0  0  0  0  0  0  0  0  0  0
    2.9837   46.0598   53.8476 H   0  0  0  0  0  0  0  0  0  0  0  0
    1.6133   47.0552   53.3319 H   0  0  0  0  0  0  0  0  0  0  0  0
    1.6413   44.2913   54.4961 H   0  0  0  0  0  0  0  0  0  0  0  0
    0.3195   45.4680   54.4965 H   0  0  0  0  0  0  0  0  0  0  0  0
    2.1590   42.4110   53.8470 H   0  0  0  0  0  0  0  0  0  0  0  0
    1.0620   40.9930   53.7610 H   0  0  0  0  0  0  0  0  0  0  0  0
    2.1222   43.5923   51.4014 H   0  0  0  0  0  0  0  0  0  0  0  0
    0.9861   44.6424   50.5459 H   0  0  0  0  0  0  0  0  0  0  0  0
  1  2  1  0
  2  3  1  0
  3  4  2  0
  4  5  1  0
  5  6  2  0
  6  7  1  0
  7  8  2  0
  8  9  1  0
  8 10  1  0
 10 11  2  0
  4 12  1  0
 12 13  2  0
 13 14  1  0
 14 15  2  0
 14 16  1  0
 16 17  1  0
 17 18  1  0
 18 19  1  0
 19 20  1  6
 20 21  3  0
 19 22  1  0
 22 23  1  0
 22 24  2  0
 19 25  1  0
 13  2  1  0
 25 16  1  0
 11  5  1  0
  1 26  1  0
  1 27  1  0
  1 28  1  0
  6 29  1  0
  7 30  1  0
 10 31  1  0
 11 32  1  0
 12 33  1  0
 17 34  1  0
 17 35  1  0
 18 36  1  0
 18 37  1  0
 23 38  1  0
 23 39  1  0
 25 40  1  0
 25 41  1  0
M  END
>  <meeko>  (2) 
{"is_sidechain": [false], "free_energy": -8.179, "intermolecular_energy": -10.019, "internal_energy": -0.738}

$$$$
ligand_73_conformer_1_docked
     RDKit          3D

 41 43  0  0  0  0  0  0  0  0999 V2000
    2.5920   42.8110   52.5170 C   0  0  0  0  0  0  0  0  0  0  0  0
    3.2740   44.0830   52.7230 N   0  0  0  0  0  0  0  0  0  0  0  0
    4.5890   44.2180   52.6730 N   0  0  0  0  0  0  0  0  0  0  0  0
    4.8830   45.5100   52.9310 C   0  0  0  0  0  0  0  0  0  0  0  0
    6.2660   46.0440   52.9750 C   0  0  0  0  0  0  0  0  0  0  0  0
    6.8200   46.4580   54.2000 C   0  0  0  0  0  0  0  0  0  0  0  0
    8.1230   46.9620   54.2570 C   0  0  0  0  0  0  0  0  0  0  0  0
    8.8880   47.0590   53.0920 C   0  0  0  0  0  0  0  0  0  0  0  0
   10.1510   47.5470   53.1490 F   0  0  0  0  0  0  0  0  0  0  0  0
    8.3510   46.6490   51.8690 C   0  0  0  0  0  0  0  0  0  0  0  0
    7.0490   46.1440   51.8080 C   0  0  0  0  0  0  0  0  0  0  0  0
    3.7080   46.2140   53.1600 C   0  0  0  0  0  0  0  0  0  0  0  0
    2.7070   45.2740   53.0120 C   0  0  0  0  0  0  0  0  0  0  0  0
    1.2650   45.5070   53.2270 C   0  0  0  0  0  0  0  0  0  0  0  0
    0.5390   45.7940   52.2380 O   0  0  0  0  0  0  0  0  0  0  0  0
    0.6730   45.4000   54.5340 N   0  0  0  0  0  0  0  0  0  0  0  0
    1.4620   45.1600   55.7320 C   0  0  0  0  0  0  0  0  0  0  0  0
    0.4730   44.7070   56.8000 C   0  0  0  0  0  0  0  0  0  0  0  0
   -0.9180   45.1350   56.2920 C   0  0  2  0  0  0  0  0  0  0  0  0
   -1.2360   46.4730   56.8450 C   0  0  0  0  0  0  0  0  0  0  0  0
   -1.4810   47.5190   57.2750 N   0  0  0  0  0  0  0  0  0  0  0  0
   -1.9950   44.1280   56.6740 C   0  0  0  0  0  0  0  0  0  0  0  0
   -2.9360   44.4190   57.7110 N   0  0  0  0  0  0  0  0  0  0  0  0
   -2.0750   43.0190   56.0760 O   0  0  0  0  0  0  0  0  0  0  0  0
   -0.7570   45.2500   54.7650 C   0  0  0  0  0  0  0  0  0  0  0  0
    2.3512   42.3620   53.4919 H   0  0  0  0  0  0  0  0  0  0  0  0
    1.6635   42.9801   51.9518 H   0  0  0  0  0  0  0  0  0  0  0  0
    3.2466   42.1313   51.9518 H   0  0  0  0  0  0  0  0  0  0  0  0
    6.2230   46.3846   55.1210 H   0  0  0  0  0  0  0  0  0  0  0  0
    8.5463   47.2825   55.2204 H   0  0  0  0  0  0  0  0  0  0  0  0
    8.9541   46.7238   50.9521 H   0  0  0  0  0  0  0  0  0  0  0  0
    6.6328   45.8224   50.8419 H   0  0  0  0  0  0  0  0  0  0  0  0
    3.5990   47.2809   53.4044 H   0  0  0  0  0  0  0  0  0  0  0  0
    2.2105   44.3756   55.5464 H   0  0  0  0  0  0  0  0  0  0  0  0
    2.0076   46.0628   56.0438 H   0  0  0  0  0  0  0  0  0  0  0  0
    0.5163   43.6148   56.9238 H   0  0  0  0  0  0  0  0  0  0  0  0
    0.7016   45.1531   57.7791 H   0  0  0  0  0  0  0  0  0  0  0  0
   -2.9090   45.3230   58.2320 H   0  0  0  0  0  0  0  0  0  0  0  0
   -3.6700   43.7190   57.9630 H   0  0  0  0  0  0  0  0  0  0  0  0
   -1.1332   44.3429   54.2695 H   0  0  0  0  0  0  0  0  0  0  0  0
   -1.3270   46.0980   54.3576 H   0  0  0  0  0  0  0  0  0  0  0  0
  1  2  1  0
  2  3  1  0
  3  4  2  0
  4  5  1  0
  5  6  2  0
  6  7  1  0
  7  8  2  0
  8  9  1  0
  8 10  1  0
 10 11  2  0
  4 12  1  0
 12 13  2  0
 13 14  1  0
 14 15  2  0
 14 16  1  0
 16 17  1  0
 17 18  1  0
 18 19  1  0
 19 20  1  1
 20 21  3  0
 19 22  1  0
 22 23  1  0
 22 24  2  0
 19 25  1  0
 13  2  1  0
 25 16  1  0
 11  5  1  0
  1 26  1  0
  1 27  1  0
  1 28  1  0
  6 29  1  0
  7 30  1  0
 10 31  1  0
 11 32  1  0
 12 33  1  0
 17 34  1  0
 17 35  1  0
 18 36  1  0
 18 37  1  0
 23 38  1  0
 23 39  1  0
 25 40  1  0
 25 41  1  0
M  END
>  <meeko>  (3) 
{"is_sidechain": [false], "free_energy": -8.141, "intermolecular_energy": -9.923, "internal_energy": -0.787}

$$$$
ligand_73_conformer_1_docked
     RDKit          3D

 41 43  0  0  0  0  0  0  0  0999 V2000
    4.0360   41.4190   50.4880 C   0  0  0  0  0  0  0  0  0  0  0  0
    4.2380   42.7630   51.0150 N   0  0  0  0  0  0  0  0  0  0  0  0
    5.4340   43.2870   51.2260 N   0  0  0  0  0  0  0  0  0  0  0  0
    5.2600   44.5240   51.7380 C   0  0  0  0  0  0  0  0  0  0  0  0
    6.3800   45.4210   52.1160 C   0  0  0  0  0  0  0  0  0  0  0  0
    6.5390   45.8180   53.4570 C   0  0  0  0  0  0  0  0  0  0  0  0
    7.5900   46.6620   53.8280 C   0  0  0  0  0  0  0  0  0  0  0  0
    8.4940   47.1190   52.8670 C   0  0  0  0  0  0  0  0  0  0  0  0
    9.5130   47.9370   53.2290 F   0  0  0  0  0  0  0  0  0  0  0  0
    8.3490   46.7320   51.5330 C   0  0  0  0  0  0  0  0  0  0  0  0
    7.3000   45.8880   51.1570 C   0  0  0  0  0  0  0  0  0  0  0  0
    3.9020   44.7860   51.8610 C   0  0  0  0  0  0  0  0  0  0  0  0
    3.2860   43.6460   51.3850 C   0  0  0  0  0  0  0  0  0  0  0  0
    1.8310   43.3920   51.3710 C   0  0  0  0  0  0  0  0  0  0  0  0
    1.2860   43.0260   50.2950 O   0  0  0  0  0  0  0  0  0  0  0  0
    1.0300   43.5410   52.5570 N   0  0  0  0  0  0  0  0  0  0  0  0
    0.6920   42.4180   53.4170 C   0  0  0  0  0  0  0  0  0  0  0  0
   -0.4680   42.8910   54.2860 C   0  0  0  0  0  0  0  0  0  0  0  0
   -0.4580   44.4300   54.1960 C   0  0  2  0  0  0  0  0  0  0  0  0
    0.3470   44.9670   55.3200 C   0  0  0  0  0  0  0  0  0  0  0  0
    0.9770   45.3850   56.1960 N   0  0  0  0  0  0  0  0  0  0  0  0
   -1.8670   45.0070   54.2220 C   0  0  0  0  0  0  0  0  0  0  0  0
   -2.2590   45.9380   55.2340 N   0  0  0  0  0  0  0  0  0  0  0  0
   -2.7110   44.6740   53.3440 O   0  0  0  0  0  0  0  0  0  0  0  0
    0.2640   44.7390   52.8710 C   0  0  0  0  0  0  0  0  0  0  0  0
    3.9295   40.7102   51.3224 H   0  0  0  0  0  0  0  0  0  0  0  0
    3.1249   41.3998   49.8720 H   0  0  0  0  0  0  0  0  0  0  0  0
    4.9012   41.1328   49.8720 H   0  0  0  0  0  0  0  0  0  0  0  0
    5.8306   45.4613   54.2192 H   0  0  0  0  0  0  0  0  0  0  0  0
    7.7049   46.9665   54.8787 H   0  0  0  0  0  0  0  0  0  0  0  0
    9.0618   47.0921   50.7765 H   0  0  0  0  0  0  0  0  0  0  0  0
    7.1922   45.5864   50.1047 H   0  0  0  0  0  0  0  0  0  0  0  0
    3.4243   45.6972   52.2503 H   0  0  0  0  0  0  0  0  0  0  0  0
    0.3881   41.5509   52.8122 H   0  0  0  0  0  0  0  0  0  0  0  0
    1.5516   42.1038   54.0272 H   0  0  0  0  0  0  0  0  0  0  0  0
   -1.4196   42.4910   53.9059 H   0  0  0  0  0  0  0  0  0  0  0  0
   -0.3637   42.5449   55.3249 H   0  0  0  0  0  0  0  0  0  0  0  0
   -1.5950   46.2440   55.9790 H   0  0  0  0  0  0  0  0  0  0  0  0
   -3.2290   46.3270   55.2400 H   0  0  0  0  0  0  0  0  0  0  0  0
   -0.4659   44.9482   52.0751 H   0  0  0  0  0  0  0  0  0  0  0  0
    0.9094   45.6258   52.9550 H   0  0  0  0  0  0  0  0  0  0  0  0
  1  2  1  0
  2  3  1  0
  3  4  2  0
  4  5  1  0
  5  6  2  0
  6  7  1  0
  7  8  2  0
  8  9  1  0
  8 10  1  0
 10 11  2  0
  4 12  1  0
 12 13  2  0
 13 14  1  0
 14 15  2  0
 14 16  1  0
 16 17  1  0
 17 18  1  0
 18 19  1  0
 19 20  1  1
 20 21  3  0
 19 22  1  0
 22 23  1  0
 22 24  2  0
 19 25  1  0
 13  2  1  0
 25 16  1  0
 11  5  1  0
  1 26  1  0
  1 27  1  0
  1 28  1  0
  6 29  1  0
  7 30  1  0
 10 31  1  0
 11 32  1  0
 12 33  1  0
 17 34  1  0
 17 35  1  0
 18 36  1  0
 18 37  1  0
 23 38  1  0
 23 39  1  0
 25 40  1  0
 25 41  1  0
M  END
>  <meeko>  (4) 
{"is_sidechain": [false], "free_energy": -8.027, "intermolecular_energy": -9.906, "internal_energy": -0.663}

$$$$
ligand_73_conformer_1_docked
     RDKit          3D

 41 43  0  0  0  0  0  0  0  0999 V2000
    5.8070   42.6920   49.1020 C   0  0  0  0  0  0  0  0  0  0  0  0
    5.7630   43.4900   50.3220 N   0  0  0  0  0  0  0  0  0  0  0  0
    6.7210   44.3330   50.6720 N   0  0  0  0  0  0  0  0  0  0  0  0
    6.3760   44.8810   51.8570 C   0  0  0  0  0  0  0  0  0  0  0  0
    7.2140   45.8720   52.5770 C   0  0  0  0  0  0  0  0  0  0  0  0
    6.9340   46.1820   53.9210 C   0  0  0  0  0  0  0  0  0  0  0  0
    7.7150   47.1130   54.6120 C   0  0  0  0  0  0  0  0  0  0  0  0
    8.7850   47.7440   53.9720 C   0  0  0  0  0  0  0  0  0  0  0  0
    9.5420   48.6450   54.6440 F   0  0  0  0  0  0  0  0  0  0  0  0
    9.0740   47.4430   52.6390 C   0  0  0  0  0  0  0  0  0  0  0  0
    8.2960   46.5130   51.9430 C   0  0  0  0  0  0  0  0  0  0  0  0
    5.1600   44.3570   52.2720 C   0  0  0  0  0  0  0  0  0  0  0  0
    4.7990   43.4820   51.2670 C   0  0  0  0  0  0  0  0  0  0  0  0
    3.6070   42.6100   51.2670 C   0  0  0  0  0  0  0  0  0  0  0  0
    3.7360   41.3990   50.9410 O   0  0  0  0  0  0  0  0  0  0  0  0
    2.3110   43.1080   51.6440 N   0  0  0  0  0  0  0  0  0  0  0  0
    1.5830   44.0770   50.8400 C   0  0  0  0  0  0  0  0  0  0  0  0
    0.4990   44.6450   51.7490 C   0  0  0  0  0  0  0  0  0  0  0  0
    0.3660   43.6470   52.9170 C   0  0  2  0  0  0  0  0  0  0  0  0
   -0.6970   42.6680   52.5880 C   0  0  0  0  0  0  0  0  0  0  0  0
   -1.5260   41.9030   52.3300 N   0  0  0  0  0  0  0  0  0  0  0  0
    0.0590   44.3520   54.2320 C   0  0  0  0  0  0  0  0  0  0  0  0
    0.6900   45.5920   54.5630 N   0  0  0  0  0  0  0  0  0  0  0  0
   -0.7630   43.8520   55.0490 O   0  0  0  0  0  0  0  0  0  0  0  0
    1.7220   42.9170   52.9620 C   0  0  0  0  0  0  0  0  0  0  0  0
    5.8658   41.6252   49.3636 H   0  0  0  0  0  0  0  0  0  0  0  0
    4.8974   42.8750   48.5111 H   0  0  0  0  0  0  0  0  0  0  0  0
    6.6910   42.9739   48.5111 H   0  0  0  0  0  0  0  0  0  0  0  0
    6.0942   45.6879   54.4316 H   0  0  0  0  0  0  0  0  0  0  0  0
    7.4868   47.3494   55.6618 H   0  0  0  0  0  0  0  0  0  0  0  0
    9.9165   47.9393   52.1352 H   0  0  0  0  0  0  0  0  0  0  0  0
    8.5304   46.2805   50.8937 H   0  0  0  0  0  0  0  0  0  0  0  0
    4.6075   44.5872   53.1949 H   0  0  0  0  0  0  0  0  0  0  0  0
    2.2574   44.8777   50.5025 H   0  0  0  0  0  0  0  0  0  0  0  0
    1.1529   43.6130   49.9402 H   0  0  0  0  0  0  0  0  0  0  0  0
    0.7937   45.6363   52.1237 H   0  0  0  0  0  0  0  0  0  0  0  0
   -0.4536   44.7715   51.2136 H   0  0  0  0  0  0  0  0  0  0  0  0
    1.3750   46.0440   53.9170 H   0  0  0  0  0  0  0  0  0  0  0  0
    0.4710   46.0660   55.4680 H   0  0  0  0  0  0  0  0  0  0  0  0
    2.3677   43.3531   53.7384 H   0  0  0  0  0  0  0  0  0  0  0  0
    1.6034   41.8508   53.2052 H   0  0  0  0  0  0  0  0  0  0  0  0
  1  2  1  0
  2  3  1  0
  3  4  2  0
  4  5  1  0
  5  6  2  0
  6  7  1  0
  7  8  2  0
  8  9  1  0
  8 10  1  0
 10 11  2  0
  4 12  1  0
 12 13  2  0
 13 14  1  0
 14 15  2  0
 14 16  1  0
 16 17  1  0
 17 18  1  0
 18 19  1  0
 19 20  1  6
 20 21  3  0
 19 22  1  0
 22 23  1  0
 22 24  2  0
 19 25  1  0
 13  2  1  0
 25 16  1  0
 11  5  1  0
  1 26  1  0
  1 27  1  0
  1 28  1  0
  6 29  1  0
  7 30  1  0
 10 31  1  0
 11 32  1  0
 12 33  1  0
 17 34  1  0
 17 35  1  0
 18 36  1  0
 18 37  1  0
 23 38  1  0
 23 39  1  0
 25 40  1  0
 25 41  1  0
M  END
>  <meeko>  (5) 
{"is_sidechain": [false], "free_energy": -7.859, "intermolecular_energy": -9.877, "internal_energy": -0.485}

$$$$
