ligand_81_conformer_1_docked
     RDKit          3D

 48 50  0  0  0  0  0  0  0  0999 V2000
    3.2180   46.7020   54.0200 O   0  0  0  0  0  0  0  0  0  0  0  0
    3.7780   45.7200   54.5790 C   0  0  0  0  0  0  0  0  0  0  0  0
    3.0600   44.9220   55.5320 N   0  0  0  0  0  0  0  0  0  0  0  0
    1.6310   44.9530   55.6940 C   0  0  0  0  0  0  0  0  0  0  0  0
    1.0870   45.4670   56.8790 C   0  0  0  0  0  0  0  0  0  0  0  0
   -0.2950   45.4850   57.0710 C   0  0  0  0  0  0  0  0  0  0  0  0
   -1.1490   44.9790   56.0880 C   0  0  0  0  0  0  0  0  0  0  0  0
   -0.6260   44.4460   54.8960 C   0  0  0  0  0  0  0  0  0  0  0  0
   -1.5200   43.8830   53.8550 C   0  0  0  0  0  0  0  0  0  0  0  0
   -2.7420   44.1970   53.8560 O   0  0  0  0  0  0  0  0  0  0  0  0
   -1.0170   42.9580   52.8730 N   0  0  0  0  0  0  0  0  0  0  0  0
   -1.7160   42.6200   51.6620 C   0  0  0  0  0  0  0  0  0  0  0  0
   -1.4910   43.3650   50.4950 C   0  0  0  0  0  0  0  0  0  0  0  0
   -2.1830   43.0400   49.3270 C   0  0  0  0  0  0  0  0  0  0  0  0
   -3.0950   41.9820   49.3310 C   0  0  0  0  0  0  0  0  0  0  0  0
   -3.9730   41.5620   47.8710 Cl  0  0  0  0  0  0  0  0  0  0  0  0
   -3.3010   41.2630   50.5110 C   0  0  0  0  0  0  0  0  0  0  0  0
   -2.6150   41.5960   51.6380 N   0  0  0  0  0  0  0  0  0  0  0  0
    0.7700   44.4230   54.7160 C   0  0  0  0  0  0  0  0  0  0  0  0
    5.1490   45.4170   54.2910 N   0  0  0  0  0  0  0  0  0  0  0  0
    5.9180   46.1640   53.2890 C   0  0  1  0  0  0  0  0  0  0  0  0
    7.2600   46.6390   53.8710 C   0  0  0  0  0  0  0  0  0  0  0  0
    7.0490   47.4630   54.9860 O   0  0  0  0  0  0  0  0  0  0  0  0
    6.1580   45.3070   52.0640 C   0  0  0  0  0  0  0  0  0  0  0  0
    7.1640   45.6510   51.1460 C   0  0  0  0  0  0  0  0  0  0  0  0
    7.3960   44.8560   50.0200 C   0  0  0  0  0  0  0  0  0  0  0  0
    6.6320   43.7060   49.8020 C   0  0  0  0  0  0  0  0  0  0  0  0
    6.8650   42.9430   48.7050 F   0  0  0  0  0  0  0  0  0  0  0  0
    5.6330   43.3470   50.7150 C   0  0  0  0  0  0  0  0  0  0  0  0
    4.6700   41.9030   50.4540 Cl  0  0  0  0  0  0  0  0  0  0  0  0
    5.4000   44.1410   51.8440 C   0  0  0  0  0  0  0  0  0  0  0  0
    3.6180   44.3340   56.1910 H   0  0  0  0  0  0  0  0  0  0  0  0
    1.7532   45.8584   57.6620 H   0  0  0  0  0  0  0  0  0  0  0  0
   -0.7137   45.8993   58.0000 H   0  0  0  0  0  0  0  0  0  0  0  0
   -2.2373   44.9975   56.2472 H   0  0  0  0  0  0  0  0  0  0  0  0
   -0.1130   42.4740   53.0660 H   0  0  0  0  0  0  0  0  0  0  0  0
   -0.7743   44.1995   50.5002 H   0  0  0  0  0  0  0  0  0  0  0  0
   -2.0105   43.6157   48.4057 H   0  0  0  0  0  0  0  0  0  0  0  0
   -4.0172   40.4283   50.5290 H   0  0  0  0  0  0  0  0  0  0  0  0
    1.1926   43.9853   53.7996 H   0  0  0  0  0  0  0  0  0  0  0  0
    5.5960   44.6190   54.7970 H   0  0  0  0  0  0  0  0  0  0  0  0
    5.3326   47.0486   52.9978 H   0  0  0  0  0  0  0  0  0  0  0  0
    7.8526   45.7636   54.1751 H   0  0  0  0  0  0  0  0  0  0  0  0
    7.7975   47.2129   53.1018 H   0  0  0  0  0  0  0  0  0  0  0  0
    7.0140   48.3960   54.6480 H   0  0  0  0  0  0  0  0  0  0  0  0
    7.7729   46.5515   51.3143 H   0  0  0  0  0  0  0  0  0  0  0  0
    8.1821   45.1362   49.3034 H   0  0  0  0  0  0  0  0  0  0  0  0
    4.6199   43.8523   52.5638 H   0  0  0  0  0  0  0  0  0  0  0  0
  1  2  2  0
  2  3  1  0
  3  4  1  0
  4  5  2  0
  5  6  1  0
  6  7  2  0
  7  8  1  0
  8  9  1  0
  9 10  2  0
  9 11  1  0
 11 12  1  0
 12 13  2  0
 13 14  1  0
 14 15  2  0
 15 16  1  0
 15 17  1  0
 17 18  2  0
  8 19  2  0
  2 20  1  0
 20 21  1  0
 21 22  1  0
 22 23  1  0
 21 24  1  0
 24 25  2  0
 25 26  1  0
 26 27  2  0
 27 28  1  0
 27 29  1  0
 29 30  1  0
 29 31  2  0
 19  4  1  0
 31 24  1  0
 18 12  1  0
  3 32  1  0
  5 33  1  0
  6 34  1  0
  7 35  1  0
 11 36  1  0
 13 37  1  0
 14 38  1  0
 17 39  1  0
 19 40  1  0
 20 41  1  0
 21 42  1  6
 22 43  1  0
 22 44  1  0
 23 45  1  0
 25 46  1  0
 26 47  1  0
 31 48  1  0
M  END
>  <meeko>  (1) 
{"is_sidechain": [false], "free_energy": -8.649, "intermolecular_energy": -11.936, "internal_energy": -0.951}

$$$$
ligand_81_conformer_1_docked
     RDKit          3D

 48 50  0  0  0  0  0  0  0  0999 V2000
    2.7730   46.4120   53.1800 O   0  0  0  0  0  0  0  0  0  0  0  0
    3.4830   45.5230   53.7250 C   0  0  0  0  0  0  0  0  0  0  0  0
    2.9010   44.6020   54.6600 N   0  0  0  0  0  0  0  0  0  0  0  0
    1.4860   44.3980   54.8150 C   0  0  0  0  0  0  0  0  0  0  0  0
    0.8350   43.4640   53.9980 C   0  0  0  0  0  0  0  0  0  0  0  0
   -0.5420   43.2660   54.1130 C   0  0  0  0  0  0  0  0  0  0  0  0
   -1.2850   44.0050   55.0350 C   0  0  0  0  0  0  0  0  0  0  0  0
   -0.6560   44.9580   55.8570 C   0  0  0  0  0  0  0  0  0  0  0  0
   -1.4380   45.7680   56.8220 C   0  0  0  0  0  0  0  0  0  0  0  0
   -2.0090   45.1930   57.7900 O   0  0  0  0  0  0  0  0  0  0  0  0
   -1.5820   47.1900   56.6460 N   0  0  0  0  0  0  0  0  0  0  0  0
   -2.0380   48.0810   57.6780 C   0  0  0  0  0  0  0  0  0  0  0  0
   -1.1900   48.4000   58.7500 C   0  0  0  0  0  0  0  0  0  0  0  0
   -1.6430   49.2540   59.7560 C   0  0  0  0  0  0  0  0  0  0  0  0
   -2.9350   49.7810   59.6900 C   0  0  0  0  0  0  0  0  0  0  0  0
   -3.5200   50.8560   60.9470 Cl  0  0  0  0  0  0  0  0  0  0  0  0
   -3.7570   49.4390   58.6130 C   0  0  0  0  0  0  0  0  0  0  0  0
   -3.2950   48.6060   57.6430 N   0  0  0  0  0  0  0  0  0  0  0  0
    0.7310   45.1580   55.7270 C   0  0  0  0  0  0  0  0  0  0  0  0
    4.8860   45.4510   53.4390 N   0  0  0  0  0  0  0  0  0  0  0  0
    5.5270   46.3310   52.4550 C   0  0  1  0  0  0  0  0  0  0  0  0
    6.4950   47.3090   53.1420 C   0  0  0  0  0  0  0  0  0  0  0  0
    6.3310   47.2670   54.5340 O   0  0  0  0  0  0  0  0  0  0  0  0
    6.2660   45.5100   51.4190 C   0  0  0  0  0  0  0  0  0  0  0  0
    7.5100   45.9450   50.9290 C   0  0  0  0  0  0  0  0  0  0  0  0
    8.2000   45.1840   49.9820 C   0  0  0  0  0  0  0  0  0  0  0  0
    7.6620   43.9810   49.5180 C   0  0  0  0  0  0  0  0  0  0  0  0
    8.3410   43.2520   48.5970 F   0  0  0  0  0  0  0  0  0  0  0  0
    6.4290   43.5330   50.0060 C   0  0  0  0  0  0  0  0  0  0  0  0
    5.7450   42.0210   49.4340 Cl  0  0  0  0  0  0  0  0  0  0  0  0
    5.7360   44.2910   50.9560 C   0  0  0  0  0  0  0  0  0  0  0  0
    3.5460   44.1000   55.3120 H   0  0  0  0  0  0  0  0  0  0  0  0
    1.4118   42.8841   53.2625 H   0  0  0  0  0  0  0  0  0  0  0  0
   -1.0438   42.5243   53.4742 H   0  0  0  0  0  0  0  0  0  0  0  0
   -2.3695   43.8412   55.1195 H   0  0  0  0  0  0  0  0  0  0  0  0
   -1.3830   47.5940   55.7040 H   0  0  0  0  0  0  0  0  0  0  0  0
   -0.1747   47.9794   58.7967 H   0  0  0  0  0  0  0  0  0  0  0  0
   -0.9846   49.5116   60.5987 H   0  0  0  0  0  0  0  0  0  0  0  0
   -4.7779   49.8438   58.5500 H   0  0  0  0  0  0  0  0  0  0  0  0
    1.2308   45.9177   56.3459 H   0  0  0  0  0  0  0  0  0  0  0  0
    5.4550   44.7260   53.9330 H   0  0  0  0  0  0  0  0  0  0  0  0
    4.7408   46.9154   51.9547 H   0  0  0  0  0  0  0  0  0  0  0  0
    7.5292   47.0308   52.8909 H   0  0  0  0  0  0  0  0  0  0  0  0
    6.2799   48.3285   52.7894 H   0  0  0  0  0  0  0  0  0  0  0  0
    6.9380   46.5570   54.8710 H   0  0  0  0  0  0  0  0  0  0  0  0
    7.9420   46.8889   51.2929 H   0  0  0  0  0  0  0  0  0  0  0  0
    9.1707   45.5334   49.6002 H   0  0  0  0  0  0  0  0  0  0  0  0
    4.7711   43.9322   51.3435 H   0  0  0  0  0  0  0  0  0  0  0  0
  1  2  2  0
  2  3  1  0
  3  4  1  0
  4  5  2  0
  5  6  1  0
  6  7  2  0
  7  8  1  0
  8  9  1  0
  9 10  2  0
  9 11  1  0
 11 12  1  0
 12 13  2  0
 13 14  1  0
 14 15  2  0
 15 16  1  0
 15 17  1  0
 17 18  2  0
  8 19  2  0
  2 20  1  0
 20 21  1  0
 21 22  1  0
 22 23  1  0
 21 24  1  0
 24 25  2  0
 25 26  1  0
 26 27  2  0
 27 28  1  0
 27 29  1  0
 29 30  1  0
 29 31  2  0
 19  4  1  0
 31 24  1  0
 18 12  1  0
  3 32  1  0
  5 33  1  0
  6 34  1  0
  7 35  1  0
 11 36  1  0
 13 37  1  0
 14 38  1  0
 17 39  1  0
 19 40  1  0
 20 41  1  0
 21 42  1  6
 22 43  1  0
 22 44  1  0
 23 45  1  0
 25 46  1  0
 26 47  1  0
 31 48  1  0
M  END
>  <meeko>  (2) 
{"is_sidechain": [false], "free_energy": -8.578, "intermolecular_energy": -11.918, "internal_energy": -0.871}

$$$$
ligand_81_conformer_1_docked
     RDKit          3D

 48 50  0  0  0  0  0  0  0  0999 V2000
    4.5980   43.4750   53.0280 O   0  0  0  0  0  0  0  0  0  0  0  0
    4.4310   44.7120   52.8470 C   0  0  0  0  0  0  0  0  0  0  0  0
    5.2800   45.4330   51.9420 N   0  0  0  0  0  0  0  0  0  0  0  0
    6.1360   44.8090   50.9700 C   0  0  0  0  0  0  0  0  0  0  0  0
    7.4260   45.3180   50.7650 C   0  0  0  0  0  0  0  0  0  0  0  0
    8.2670   44.7450   49.8100 C   0  0  0  0  0  0  0  0  0  0  0  0
    7.8260   43.6650   49.0410 C   0  0  0  0  0  0  0  0  0  0  0  0
    6.5320   43.1450   49.2190 C   0  0  0  0  0  0  0  0  0  0  0  0
    6.0420   42.0160   48.3920 C   0  0  0  0  0  0  0  0  0  0  0  0
    5.8240   40.9000   48.9390 O   0  0  0  0  0  0  0  0  0  0  0  0
    5.8500   42.1700   46.9730 N   0  0  0  0  0  0  0  0  0  0  0  0
    5.0920   41.2530   46.1650 C   0  0  0  0  0  0  0  0  0  0  0  0
    5.4790   41.0060   44.8390 C   0  0  0  0  0  0  0  0  0  0  0  0
    4.7300   40.1260   44.0560 C   0  0  0  0  0  0  0  0  0  0  0  0
    3.6020   39.5040   44.5960 C   0  0  0  0  0  0  0  0  0  0  0  0
    2.6500   38.3960   43.6240 Cl  0  0  0  0  0  0  0  0  0  0  0  0
    3.2400   39.7750   45.9170 C   0  0  0  0  0  0  0  0  0  0  0  0
    3.9840   40.6350   46.6630 N   0  0  0  0  0  0  0  0  0  0  0  0
    5.6870   43.7370   50.1780 C   0  0  0  0  0  0  0  0  0  0  0  0
    3.4110   45.4120   53.5730 N   0  0  0  0  0  0  0  0  0  0  0  0
    2.4800   44.7200   54.4700 C   0  0  1  0  0  0  0  0  0  0  0  0
    1.9700   45.6690   55.5680 C   0  0  0  0  0  0  0  0  0  0  0  0
    3.0240   46.0710   56.4000 O   0  0  0  0  0  0  0  0  0  0  0  0
    1.3130   44.1590   53.6860 C   0  0  0  0  0  0  0  0  0  0  0  0
    1.1890   42.7710   53.4980 C   0  0  0  0  0  0  0  0  0  0  0  0
    0.1070   42.2490   52.7840 C   0  0  0  0  0  0  0  0  0  0  0  0
   -0.8660   43.1020   52.2560 C   0  0  0  0  0  0  0  0  0  0  0  0
   -1.9110   42.5840   51.5640 F   0  0  0  0  0  0  0  0  0  0  0  0
   -0.7590   44.4850   52.4460 C   0  0  0  0  0  0  0  0  0  0  0  0
   -1.9760   45.5670   51.7920 Cl  0  0  0  0  0  0  0  0  0  0  0  0
    0.3220   45.0110   53.1620 C   0  0  0  0  0  0  0  0  0  0  0  0
    5.3270   46.4730   52.0450 H   0  0  0  0  0  0  0  0  0  0  0  0
    7.7773   46.1738   51.3602 H   0  0  0  0  0  0  0  0  0  0  0  0
    9.2809   45.1451   49.6621 H   0  0  0  0  0  0  0  0  0  0  0  0
    8.4958   43.2186   48.2913 H   0  0  0  0  0  0  0  0  0  0  0  0
    6.3190   42.9700   46.4940 H   0  0  0  0  0  0  0  0  0  0  0  0
    6.3665   41.5024   44.4195 H   0  0  0  0  0  0  0  0  0  0  0  0
    5.0273   39.9230   43.0166 H   0  0  0  0  0  0  0  0  0  0  0  0
    2.3532   39.2930   46.3543 H   0  0  0  0  0  0  0  0  0  0  0  0
    4.6634   43.3562   50.3091 H   0  0  0  0  0  0  0  0  0  0  0  0
    3.3200   46.4430   53.4270 H   0  0  0  0  0  0  0  0  0  0  0  0
    3.0200   43.8906   54.9502 H   0  0  0  0  0  0  0  0  0  0  0  0
    1.5208   46.5567   55.0988 H   0  0  0  0  0  0  0  0  0  0  0  0
    1.2207   45.1397   56.1749 H   0  0  0  0  0  0  0  0  0  0  0  0
    2.6130   46.3930   57.2450 H   0  0  0  0  0  0  0  0  0  0  0  0
    1.9477   42.0925   53.9151 H   0  0  0  0  0  0  0  0  0  0  0  0
    0.0208   41.1623   52.6370 H   0  0  0  0  0  0  0  0  0  0  0  0
    0.3981   46.0974   53.3165 H   0  0  0  0  0  0  0  0  0  0  0  0
  1  2  2  0
  2  3  1  0
  3  4  1  0
  4  5  2  0
  5  6  1  0
  6  7  2  0
  7  8  1  0
  8  9  1  0
  9 10  2  0
  9 11  1  0
 11 12  1  0
 12 13  2  0
 13 14  1  0
 14 15  2  0
 15 16  1  0
 15 17  1  0
 17 18  2  0
  8 19  2  0
  2 20  1  0
 20 21  1  0
 21 22  1  0
 22 23  1  0
 21 24  1  0
 24 25  2  0
 25 26  1  0
 26 27  2  0
 27 28  1  0
 27 29  1  0
 29 30  1  0
 29 31  2  0
 19  4  1  0
 31 24  1  0
 18 12  1  0
  3 32  1  0
  5 33  1  0
  6 34  1  0
  7 35  1  0
 11 36  1  0
 13 37  1  0
 14 38  1  0
 17 39  1  0
 19 40  1  0
 20 41  1  0
 21 42  1  1
 22 43  1  0
 22 44  1  0
 23 45  1  0
 25 46  1  0
 26 47  1  0
 31 48  1  0
M  END
>  <meeko>  (3) 
{"is_sidechain": [false], "free_energy": -7.945, "intermolecular_energy": -11.562, "internal_energy": -0.352}

$$$$
ligand_81_conformer_1_docked
     RDKit          3D

 48 50  0  0  0  0  0  0  0  0999 V2000
    5.5020   42.6150   46.0950 O   0  0  0  0  0  0  0  0  0  0  0  0
    5.3610   41.5740   46.7920 C   0  0  0  0  0  0  0  0  0  0  0  0
    5.9170   41.5040   48.1130 N   0  0  0  0  0  0  0  0  0  0  0  0
    6.3760   42.6470   48.8550 C   0  0  0  0  0  0  0  0  0  0  0  0
    7.6600   43.1530   48.6090 C   0  0  0  0  0  0  0  0  0  0  0  0
    8.1380   44.2470   49.3330 C   0  0  0  0  0  0  0  0  0  0  0  0
    7.3440   44.8390   50.3180 C   0  0  0  0  0  0  0  0  0  0  0  0
    6.0580   44.3410   50.5920 C   0  0  0  0  0  0  0  0  0  0  0  0
    5.2160   44.9450   51.6540 C   0  0  0  0  0  0  0  0  0  0  0  0
    4.8850   46.1590   51.5620 O   0  0  0  0  0  0  0  0  0  0  0  0
    4.8080   44.1740   52.7990 N   0  0  0  0  0  0  0  0  0  0  0  0
    3.7520   44.5680   53.6920 C   0  0  0  0  0  0  0  0  0  0  0  0
    4.0480   45.3420   54.8250 C   0  0  0  0  0  0  0  0  0  0  0  0
    3.0200   45.7090   55.6950 C   0  0  0  0  0  0  0  0  0  0  0  0
    1.7100   45.3000   55.4350 C   0  0  0  0  0  0  0  0  0  0  0  0
    0.4080   45.7530   56.5200 Cl  0  0  0  0  0  0  0  0  0  0  0  0
    1.4490   44.5250   54.3030 C   0  0  0  0  0  0  0  0  0  0  0  0
    2.4650   44.1790   53.4670 N   0  0  0  0  0  0  0  0  0  0  0  0
    5.5890   43.2310   49.8640 C   0  0  0  0  0  0  0  0  0  0  0  0
    4.6720   40.4370   46.2520 N   0  0  0  0  0  0  0  0  0  0  0  0
    4.0390   40.4670   44.9280 C   0  0  1  0  0  0  0  0  0  0  0  0
    5.0380   40.0580   43.8330 C   0  0  0  0  0  0  0  0  0  0  0  0
    5.6260   41.1920   43.2550 O   0  0  0  0  0  0  0  0  0  0  0  0
    2.8350   39.5500   44.9020 C   0  0  0  0  0  0  0  0  0  0  0  0
    1.8800   39.6670   43.8770 C   0  0  0  0  0  0  0  0  0  0  0  0
    0.7730   38.8140   43.8420 C   0  0  0  0  0  0  0  0  0  0  0  0
    0.6100   37.8330   44.8230 C   0  0  0  0  0  0  0  0  0  0  0  0
   -0.4690   37.0120   44.7800 F   0  0  0  0  0  0  0  0  0  0  0  0
    1.5610   37.6990   45.8430 C   0  0  0  0  0  0  0  0  0  0  0  0
    1.3700   36.4670   47.0780 Cl  0  0  0  0  0  0  0  0  0  0  0  0
    2.6700   38.5510   45.8790 C   0  0  0  0  0  0  0  0  0  0  0  0
    6.0560   40.5560   48.5320 H   0  0  0  0  0  0  0  0  0  0  0  0
    8.2944   42.6856   47.8414 H   0  0  0  0  0  0  0  0  0  0  0  0
    9.1430   44.6439   49.1271 H   0  0  0  0  0  0  0  0  0  0  0  0
    7.7276   45.7011   50.8834 H   0  0  0  0  0  0  0  0  0  0  0  0
    5.3310   43.2980   53.0190 H   0  0  0  0  0  0  0  0  0  0  0  0
    5.0826   45.6570   55.0258 H   0  0  0  0  0  0  0  0  0  0  0  0
    3.2410   46.3189   56.5833 H   0  0  0  0  0  0  0  0  0  0  0  0
    0.4223   44.1944   54.0873 H   0  0  0  0  0  0  0  0  0  0  0  0
    4.5952   42.8155   50.0869 H   0  0  0  0  0  0  0  0  0  0  0  0
    4.6020   39.5760   46.8400 H   0  0  0  0  0  0  0  0  0  0  0  0
    3.7093   41.4973   44.7286 H   0  0  0  0  0  0  0  0  0  0  0  0
    5.8240   39.4293   44.2768 H   0  0  0  0  0  0  0  0  0  0  0  0
    4.5006   39.4995   43.0524 H   0  0  0  0  0  0  0  0  0  0  0  0
    5.2670   41.9800   43.7420 H   0  0  0  0  0  0  0  0  0  0  0  0
    2.0045   40.4339   43.0983 H   0  0  0  0  0  0  0  0  0  0  0  0
    0.0278   38.9156   43.0393 H   0  0  0  0  0  0  0  0  0  0  0  0
    3.4186   38.4391   46.6771 H   0  0  0  0  0  0  0  0  0  0  0  0
  1  2  2  0
  2  3  1  0
  3  4  1  0
  4  5  2  0
  5  6  1  0
  6  7  2  0
  7  8  1  0
  8  9  1  0
  9 10  2  0
  9 11  1  0
 11 12  1  0
 12 13  2  0
 13 14  1  0
 14 15  2  0
 15 16  1  0
 15 17  1  0
 17 18  2  0
  8 19  2  0
  2 20  1  0
 20 21  1  0
 21 22  1  0
 22 23  1  0
 21 24  1  0
 24 25  2  0
 25 26  1  0
 26 27  2  0
 27 28  1  0
 27 29  1  0
 29 30  1  0
 29 31  2  0
 19  4  1  0
 31 24  1  0
 18 12  1  0
  3 32  1  0
  5 33  1  0
  6 34  1  0
  7 35  1  0
 11 36  1  0
 13 37  1  0
 14 38  1  0
 17 39  1  0
 19 40  1  0
 20 41  1  0
 21 42  1  6
 22 43  1  0
 22 44  1  0
 23 45  1  0
 25 46  1  0
 26 47  1  0
 31 48  1  0
M  END
>  <meeko>  (4) 
{"is_sidechain": [false], "free_energy": -7.907, "intermolecular_energy": -10.971, "internal_energy": -0.892}

$$$$
ligand_81_conformer_1_docked
     RDKit          3D

 48 50  0  0  0  0  0  0  0  0999 V2000
    5.3410   45.4490   50.5160 O   0  0  0  0  0  0  0  0  0  0  0  0
    5.1460   44.7410   51.5410 C   0  0  0  0  0  0  0  0  0  0  0  0
    4.8650   43.3390   51.4110 N   0  0  0  0  0  0  0  0  0  0  0  0
    5.0840   42.5820   50.2080 C   0  0  0  0  0  0  0  0  0  0  0  0
    6.1450   42.9320   49.3610 C   0  0  0  0  0  0  0  0  0  0  0  0
    6.3630   42.2290   48.1760 C   0  0  0  0  0  0  0  0  0  0  0  0
    5.5180   41.1760   47.8170 C   0  0  0  0  0  0  0  0  0  0  0  0
    4.4400   40.8140   48.6430 C   0  0  0  0  0  0  0  0  0  0  0  0
    3.5200   39.7150   48.2600 C   0  0  0  0  0  0  0  0  0  0  0  0
    2.8360   39.1450   49.1540 O   0  0  0  0  0  0  0  0  0  0  0  0
    3.4300   39.2720   46.8930 N   0  0  0  0  0  0  0  0  0  0  0  0
    2.3590   38.4550   46.3870 C   0  0  0  0  0  0  0  0  0  0  0  0
    2.5170   37.0630   46.3150 C   0  0  0  0  0  0  0  0  0  0  0  0
    1.4790   36.2780   45.8090 C   0  0  0  0  0  0  0  0  0  0  0  0
    0.2970   36.8840   45.3770 C   0  0  0  0  0  0  0  0  0  0  0  0
   -1.0160   35.9100   44.7390 Cl  0  0  0  0  0  0  0  0  0  0  0  0
    0.1740   38.2730   45.4570 C   0  0  0  0  0  0  0  0  0  0  0  0
    1.1960   39.0190   45.9530 N   0  0  0  0  0  0  0  0  0  0  0  0
    4.2210   41.5370   49.8310 C   0  0  0  0  0  0  0  0  0  0  0  0
    5.1700   45.3410   52.8430 N   0  0  0  0  0  0  0  0  0  0  0  0
    5.5030   46.7560   53.0430 C   0  0  1  0  0  0  0  0  0  0  0  0
    4.6580   47.3630   54.1760 C   0  0  0  0  0  0  0  0  0  0  0  0
    4.2690   48.6710   53.8530 O   0  0  0  0  0  0  0  0  0  0  0  0
    6.9760   46.9110   53.3540 C   0  0  0  0  0  0  0  0  0  0  0  0
    7.3860   47.4660   54.5780 C   0  0  0  0  0  0  0  0  0  0  0  0
    8.7450   47.6000   54.8740 C   0  0  0  0  0  0  0  0  0  0  0  0
    9.7100   47.1760   53.9560 C   0  0  0  0  0  0  0  0  0  0  0  0
   11.0260   47.3110   54.2530 F   0  0  0  0  0  0  0  0  0  0  0  0
    9.3140   46.6100   52.7370 C   0  0  0  0  0  0  0  0  0  0  0  0
   10.5160   46.0690   51.5780 Cl  0  0  0  0  0  0  0  0  0  0  0  0
    7.9540   46.4740   52.4390 C   0  0  0  0  0  0  0  0  0  0  0  0
    4.4120   42.8580   52.2200 H   0  0  0  0  0  0  0  0  0  0  0  0
    6.8093   43.7657   49.6324 H   0  0  0  0  0  0  0  0  0  0  0  0
    7.2033   42.5048   47.5219 H   0  0  0  0  0  0  0  0  0  0  0  0
    5.6976   40.6263   46.8813 H   0  0  0  0  0  0  0  0  0  0  0  0
    4.2030   39.5220   46.2390 H   0  0  0  0  0  0  0  0  0  0  0  0
    3.4519   36.5933   46.6547 H   0  0  0  0  0  0  0  0  0  0  0  0
    1.5918   35.1854   45.7507 H   0  0  0  0  0  0  0  0  0  0  0  0
   -0.7506   38.7634   45.1184 H   0  0  0  0  0  0  0  0  0  0  0  0
    3.3645   41.2816   50.4723 H   0  0  0  0  0  0  0  0  0  0  0  0
    4.9700   44.7350   53.6710 H   0  0  0  0  0  0  0  0  0  0  0  0
    5.2754   47.2959   52.1120 H   0  0  0  0  0  0  0  0  0  0  0  0
    3.7604   46.7458   54.3285 H   0  0  0  0  0  0  0  0  0  0  0  0
    5.2618   47.3885   55.0951 H   0  0  0  0  0  0  0  0  0  0  0  0
    5.0770   49.1320   53.5070 H   0  0  0  0  0  0  0  0  0  0  0  0
    6.6324   47.7971   55.3077 H   0  0  0  0  0  0  0  0  0  0  0  0
    9.0564   48.0406   55.8326 H   0  0  0  0  0  0  0  0  0  0  0  0
    7.6462   46.0229   51.4841 H   0  0  0  0  0  0  0  0  0  0  0  0
  1  2  2  0
  2  3  1  0
  3  4  1  0
  4  5  2  0
  5  6  1  0
  6  7  2  0
  7  8  1  0
  8  9  1  0
  9 10  2  0
  9 11  1  0
 11 12  1  0
 12 13  2  0
 13 14  1  0
 14 15  2  0
 15 16  1  0
 15 17  1  0
 17 18  2  0
  8 19  2  0
  2 20  1  0
 20 21  1  0
 21 22  1  0
 22 23  1  0
 21 24  1  0
 24 25  2  0
 25 26  1  0
 26 27  2  0
 27 28  1  0
 27 29  1  0
 29 30  1  0
 29 31  2  0
 19  4  1  0
 31 24  1  0
 18 12  1  0
  3 32  1  0
  5 33  1  0
  6 34  1  0
  7 35  1  0
 11 36  1  0
 13 37  1  0
 14 38  1  0
 17 39  1  0
 19 40  1  0
 20 41  1  0
 21 42  1  6
 22 43  1  0
 22 44  1  0
 23 45  1  0
 25 46  1  0
 26 47  1  0
 31 48  1  0
M  END
>  <meeko>  (5) 
{"is_sidechain": [false], "free_energy": -7.886, "intermolecular_energy": -11.584, "internal_energy": -0.25}

$$$$
