ligand_20_conformer_4_docked
     RDKit          3D

 52 56  0  0  0  0  0  0  0  0999 V2000
    4.5500   44.9310   55.6780 O   0  0  0  0  0  0  0  0  0  0  0  0
    3.8110   45.5710   54.8830 C   0  0  0  0  0  0  0  0  0  0  0  0
    4.3820   46.5080   53.9530 N   0  0  0  0  0  0  0  0  0  0  0  0
    5.7980   46.6310   53.7220 C   0  0  0  0  0  0  0  0  0  0  0  0
    6.6340   47.2150   54.6190 N   0  0  0  0  0  0  0  0  0  0  0  0
    7.8380   47.0990   54.0390 C   0  0  0  0  0  0  0  0  0  0  0  0
    9.0600   47.5360   54.5450 C   0  0  0  0  0  0  0  0  0  0  0  0
   10.2110   47.2960   53.7750 C   0  0  0  0  0  0  0  0  0  0  0  0
   10.1130   46.6370   52.5300 C   0  0  0  0  0  0  0  0  0  0  0  0
    8.8630   46.2110   52.0450 C   0  0  0  0  0  0  0  0  0  0  0  0
    7.7330   46.4610   52.8360 C   0  0  0  0  0  0  0  0  0  0  0  0
    6.4380   46.1520   52.6090 N   0  0  0  0  0  0  0  0  0  0  0  0
    5.8860   45.4580   51.4280 C   0  0  0  0  0  0  0  0  0  0  0  0
    5.3510   44.0680   51.7610 C   0  0  0  0  0  0  0  0  0  0  0  0
    5.5960   43.2390   50.5130 C   0  0  0  0  0  0  0  0  0  0  0  0
    6.8230   43.8400   49.8390 C   0  0  0  0  0  0  0  0  0  0  0  0
    6.9160   45.2910   50.3040 C   0  0  0  0  0  0  0  0  0  0  0  0
    2.3540   45.3510   54.9420 C   0  0  0  0  0  0  0  0  0  0  0  0
    1.5650   45.2780   56.0720 C   0  0  0  0  0  0  0  0  0  0  0  0
    0.3330   45.0760   55.6780 O   0  0  0  0  0  0  0  0  0  0  0  0
    0.3440   45.0320   54.3630 C   0  0  0  0  0  0  0  0  0  0  0  0
   -0.8950   44.7790   53.5420 C   0  0  0  0  0  0  0  0  0  0  0  0
   -0.7300   45.1770   52.0600 C   0  0  0  0  0  0  0  0  0  0  0  0
    0.0220   44.0990   51.2570 C   0  0  0  0  0  0  0  0  0  0  0  0
   -0.5870   42.8290   51.4070 O   0  0  0  0  0  0  0  0  0  0  0  0
   -0.4960   42.4080   52.7550 C   0  0  0  0  0  0  0  0  0  0  0  0
   -1.3420   43.3110   53.6610 C   0  0  0  0  0  0  0  0  0  0  0  0
    1.5830   45.1950   53.8510 N   0  0  0  0  0  0  0  0  0  0  0  0
    3.7330   47.1310   53.4330 H   0  0  0  0  0  0  0  0  0  0  0  0
    9.1221   48.0516   55.5147 H   0  0  0  0  0  0  0  0  0  0  0  0
   11.1940   47.6235   54.1444 H   0  0  0  0  0  0  0  0  0  0  0  0
   11.0203   46.4555   51.9352 H   0  0  0  0  0  0  0  0  0  0  0  0
    8.7751   45.6980   51.0759 H   0  0  0  0  0  0  0  0  0  0  0  0
    5.0648   46.1078   51.0912 H   0  0  0  0  0  0  0  0  0  0  0  0
    5.8910   43.6420   52.6194 H   0  0  0  0  0  0  0  0  0  0  0  0
    4.2864   44.0919   52.0368 H   0  0  0  0  0  0  0  0  0  0  0  0
    5.7847   42.1895   50.7831 H   0  0  0  0  0  0  0  0  0  0  0  0
    4.7231   43.2535   49.8438 H   0  0  0  0  0  0  0  0  0  0  0  0
    7.7269   43.2883   50.1368 H   0  0  0  0  0  0  0  0  0  0  0  0
    6.7399   43.7813   48.7437 H   0  0  0  0  0  0  0  0  0  0  0  0
    7.9271   45.5047   50.6809 H   0  0  0  0  0  0  0  0  0  0  0  0
    6.7155   45.9865   49.4757 H   0  0  0  0  0  0  0  0  0  0  0  0
    1.9083   45.3723   57.1128 H   0  0  0  0  0  0  0  0  0  0  0  0
   -1.6796   45.4281   53.9580 H   0  0  0  0  0  0  0  0  0  0  0  0
   -1.7266   45.3201   51.6170 H   0  0  0  0  0  0  0  0  0  0  0  0
   -0.1414   46.1054   52.0195 H   0  0  0  0  0  0  0  0  0  0  0  0
    0.0165   44.3758   50.1924 H   0  0  0  0  0  0  0  0  0  0  0  0
    1.0524   44.0377   51.6371 H   0  0  0  0  0  0  0  0  0  0  0  0
   -0.8592   41.3728   52.8357 H   0  0  0  0  0  0  0  0  0  0  0  0
    0.5546   42.4688   53.0753 H   0  0  0  0  0  0  0  0  0  0  0  0
   -2.3983   43.2307   53.3648 H   0  0  0  0  0  0  0  0  0  0  0  0
   -1.2105   42.9862   54.7037 H   0  0  0  0  0  0  0  0  0  0  0  0
  1  2  2  0
  2  3  1  0
  3  4  1  0
  4  5  2  0
  5  6  1  0
  6  7  2  0
  7  8  1  0
  8  9  2  0
  9 10  1  0
 10 11  2  0
 11 12  1  0
 12 13  1  0
 13 14  1  0
 14 15  1  0
 15 16  1  0
 16 17  1  0
  2 18  1  0
 18 19  2  0
 19 20  1  0
 20 21  1  0
 21 22  1  0
 22 23  1  0
 23 24  1  0
 24 25  1  0
 25 26  1  0
 26 27  1  0
 21 28  2  0
 12  4  1  0
 17 13  1  0
 28 18  1  0
 11  6  1  0
 27 22  1  0
  3 29  1  0
  7 30  1  0
  8 31  1  0
  9 32  1  0
 10 33  1  0
 13 34  1  0
 14 35  1  0
 14 36  1  0
 15 37  1  0
 15 38  1  0
 16 39  1  0
 16 40  1  0
 17 41  1  0
 17 42  1  0
 19 43  1  0
 22 44  1  0
 23 45  1  0
 23 46  1  0
 24 47  1  0
 24 48  1  0
 26 49  1  0
 26 50  1  0
 27 51  1  0
 27 52  1  0
M  END
>  <meeko>  (1) 
{"is_sidechain": [false], "free_energy": -10.229, "intermolecular_energy": -12.621, "internal_energy": -0.079}

$$$$
ligand_20_conformer_4_docked
     RDKit          3D

 52 56  0  0  0  0  0  0  0  0999 V2000
    4.6560   44.3580   55.3230 O   0  0  0  0  0  0  0  0  0  0  0  0
    3.9030   45.3070   54.9760 C   0  0  0  0  0  0  0  0  0  0  0  0
    4.4610   46.5130   54.4260 N   0  0  0  0  0  0  0  0  0  0  0  0
    5.8440   46.6470   54.0490 C   0  0  0  0  0  0  0  0  0  0  0  0
    6.7900   47.1110   54.9060 N   0  0  0  0  0  0  0  0  0  0  0  0
    7.9170   47.0510   54.1820 C   0  0  0  0  0  0  0  0  0  0  0  0
    9.1990   47.4100   54.5910 C   0  0  0  0  0  0  0  0  0  0  0  0
   10.2490   47.2510   53.6700 C   0  0  0  0  0  0  0  0  0  0  0  0
    9.9950   46.7450   52.3770 C   0  0  0  0  0  0  0  0  0  0  0  0
    8.6880   46.3930   51.9930 C   0  0  0  0  0  0  0  0  0  0  0  0
    7.6610   46.5610   52.9320 C   0  0  0  0  0  0  0  0  0  0  0  0
    6.3420   46.2960   52.8220 N   0  0  0  0  0  0  0  0  0  0  0  0
    5.6430   45.7530   51.6400 C   0  0  0  0  0  0  0  0  0  0  0  0
    4.2750   46.3960   51.4200 C   0  0  0  0  0  0  0  0  0  0  0  0
    3.4170   45.3020   50.8110 C   0  0  0  0  0  0  0  0  0  0  0  0
    3.9680   43.9850   51.3420 C   0  0  0  0  0  0  0  0  0  0  0  0
    5.4250   44.2380   51.7240 C   0  0  0  0  0  0  0  0  0  0  0  0
    2.4480   45.1590   55.1660 C   0  0  0  0  0  0  0  0  0  0  0  0
    1.6670   45.7490   56.1380 C   0  0  0  0  0  0  0  0  0  0  0  0
    0.4340   45.3540   55.9440 O   0  0  0  0  0  0  0  0  0  0  0  0
    0.4370   44.5590   54.8960 C   0  0  0  0  0  0  0  0  0  0  0  0
   -0.8060   43.8760   54.3830 C   0  0  0  0  0  0  0  0  0  0  0  0
   -1.7840   44.8450   53.6850 C   0  0  0  0  0  0  0  0  0  0  0  0
   -1.3550   45.1490   52.2380 C   0  0  0  0  0  0  0  0  0  0  0  0
   -1.1590   43.9570   51.4980 O   0  0  0  0  0  0  0  0  0  0  0  0
   -0.0840   43.2190   52.0490 C   0  0  0  0  0  0  0  0  0  0  0  0
   -0.4430   42.7080   53.4490 C   0  0  0  0  0  0  0  0  0  0  0  0
    1.6710   44.3990   54.3720 N   0  0  0  0  0  0  0  0  0  0  0  0
    3.8270   47.3290   54.3070 H   0  0  0  0  0  0  0  0  0  0  0  0
    9.3837   47.8048   55.6010 H   0  0  0  0  0  0  0  0  0  0  0  0
   11.2751   47.5226   53.9588 H   0  0  0  0  0  0  0  0  0  0  0  0
   10.8246   46.6250   51.6647 H   0  0  0  0  0  0  0  0  0  0  0  0
    8.4788   45.9985   50.9877 H   0  0  0  0  0  0  0  0  0  0  0  0
    6.3108   45.9892   50.7985 H   0  0  0  0  0  0  0  0  0  0  0  0
    3.8488   46.7337   52.3762 H   0  0  0  0  0  0  0  0  0  0  0  0
    4.3356   47.2817   50.7705 H   0  0  0  0  0  0  0  0  0  0  0  0
    2.3673   45.4266   51.1154 H   0  0  0  0  0  0  0  0  0  0  0  0
    3.4461   45.3347   49.7119 H   0  0  0  0  0  0  0  0  0  0  0  0
    3.3955   43.6634   52.2245 H   0  0  0  0  0  0  0  0  0  0  0  0
    3.8908   43.1910   50.5847 H   0  0  0  0  0  0  0  0  0  0  0  0
    5.6161   43.8832   52.7475 H   0  0  0  0  0  0  0  0  0  0  0  0
    6.1104   43.7007   51.0520 H   0  0  0  0  0  0  0  0  0  0  0  0
    2.0162   46.4270   56.9307 H   0  0  0  0  0  0  0  0  0  0  0  0
   -1.3297   43.4810   55.2660 H   0  0  0  0  0  0  0  0  0  0  0  0
   -2.7857   44.3907   53.6711 H   0  0  0  0  0  0  0  0  0  0  0  0
   -1.7858   45.7910   54.2463 H   0  0  0  0  0  0  0  0  0  0  0  0
   -2.1379   45.7487   51.7506 H   0  0  0  0  0  0  0  0  0  0  0  0
   -0.4036   45.7003   52.2665 H   0  0  0  0  0  0  0  0  0  0  0  0
    0.1378   42.3614   51.3968 H   0  0  0  0  0  0  0  0  0  0  0  0
    0.7951   43.8757   52.1254 H   0  0  0  0  0  0  0  0  0  0  0  0
   -1.3028   42.0261   53.3741 H   0  0  0  0  0  0  0  0  0  0  0  0
    0.4288   42.1823   53.8657 H   0  0  0  0  0  0  0  0  0  0  0  0
  1  2  2  0
  2  3  1  0
  3  4  1  0
  4  5  2  0
  5  6  1  0
  6  7  2  0
  7  8  1  0
  8  9  2  0
  9 10  1  0
 10 11  2  0
 11 12  1  0
 12 13  1  0
 13 14  1  0
 14 15  1  0
 15 16  1  0
 16 17  1  0
  2 18  1  0
 18 19  2  0
 19 20  1  0
 20 21  1  0
 21 22  1  0
 22 23  1  0
 23 24  1  0
 24 25  1  0
 25 26  1  0
 26 27  1  0
 21 28  2  0
 12  4  1  0
 17 13  1  0
 28 18  1  0
 11  6  1  0
 27 22  1  0
  3 29  1  0
  7 30  1  0
  8 31  1  0
  9 32  1  0
 10 33  1  0
 13 34  1  0
 14 35  1  0
 14 36  1  0
 15 37  1  0
 15 38  1  0
 16 39  1  0
 16 40  1  0
 17 41  1  0
 17 42  1  0
 19 43  1  0
 22 44  1  0
 23 45  1  0
 23 46  1  0
 24 47  1  0
 24 48  1  0
 26 49  1  0
 26 50  1  0
 27 51  1  0
 27 52  1  0
M  END
>  <meeko>  (2) 
{"is_sidechain": [false], "free_energy": -10.19, "intermolecular_energy": -11.876, "internal_energy": -0.776}

$$$$
ligand_20_conformer_4_docked
     RDKit          3D

 52 56  0  0  0  0  0  0  0  0999 V2000
    4.1950   44.8090   55.1390 O   0  0  0  0  0  0  0  0  0  0  0  0
    3.5380   45.4350   54.2640 C   0  0  0  0  0  0  0  0  0  0  0  0
    4.1890   46.3950   53.4140 N   0  0  0  0  0  0  0  0  0  0  0  0
    5.6190   46.5590   53.3550 C   0  0  0  0  0  0  0  0  0  0  0  0
    6.3220   47.1750   54.3400 N   0  0  0  0  0  0  0  0  0  0  0  0
    7.5900   47.0920   53.9120 C   0  0  0  0  0  0  0  0  0  0  0  0
    8.7280   47.5680   54.5580 C   0  0  0  0  0  0  0  0  0  0  0  0
    9.9710   47.3590   53.9350 C   0  0  0  0  0  0  0  0  0  0  0  0
   10.0440   46.6880   52.6940 C   0  0  0  0  0  0  0  0  0  0  0  0
    8.8750   46.2210   52.0660 C   0  0  0  0  0  0  0  0  0  0  0  0
    7.6510   46.4430   52.7120 C   0  0  0  0  0  0  0  0  0  0  0  0
    6.4030   46.0930   52.3330 N   0  0  0  0  0  0  0  0  0  0  0  0
    6.0190   45.3740   51.1010 C   0  0  0  0  0  0  0  0  0  0  0  0
    5.4860   43.9710   51.3820 C   0  0  0  0  0  0  0  0  0  0  0  0
    5.9040   43.1410   50.1820 C   0  0  0  0  0  0  0  0  0  0  0  0
    7.1870   43.7720   49.6560 C   0  0  0  0  0  0  0  0  0  0  0  0
    7.1820   45.2290   50.1130 C   0  0  0  0  0  0  0  0  0  0  0  0
    2.0910   45.1740   54.1470 C   0  0  0  0  0  0  0  0  0  0  0  0
    1.2720   45.4680   53.0770 C   0  0  0  0  0  0  0  0  0  0  0  0
    0.0640   45.0690   53.3860 O   0  0  0  0  0  0  0  0  0  0  0  0
    0.1210   44.5420   54.5890 C   0  0  0  0  0  0  0  0  0  0  0  0
   -1.0910   43.9980   55.3040 C   0  0  0  0  0  0  0  0  0  0  0  0
   -1.2430   44.5450   56.7390 C   0  0  0  0  0  0  0  0  0  0  0  0
   -1.8680   45.9530   56.7520 C   0  0  0  0  0  0  0  0  0  0  0  0
   -3.0890   45.9800   56.0350 O   0  0  0  0  0  0  0  0  0  0  0  0
   -2.8500   45.7010   54.6680 C   0  0  0  0  0  0  0  0  0  0  0  0
   -2.3700   44.2560   54.4880 C   0  0  0  0  0  0  0  0  0  0  0  0
    1.3650   44.5840   55.1140 N   0  0  0  0  0  0  0  0  0  0  0  0
    3.5900   47.0050   52.8230 H   0  0  0  0  0  0  0  0  0  0  0  0
    8.6569   48.0901   55.5236 H   0  0  0  0  0  0  0  0  0  0  0  0
   10.8917   47.7200   54.4166 H   0  0  0  0  0  0  0  0  0  0  0  0
   11.0217   46.5296   52.2154 H   0  0  0  0  0  0  0  0  0  0  0  0
    8.9200   45.6984   51.0991 H   0  0  0  0  0  0  0  0  0  0  0  0
    5.2272   45.9969   50.6593 H   0  0  0  0  0  0  0  0  0  0  0  0
    5.9293   43.5671   52.3041 H   0  0  0  0  0  0  0  0  0  0  0  0
    4.3956   43.9659   51.5267 H   0  0  0  0  0  0  0  0  0  0  0  0
    6.0872   42.0992   50.4839 H   0  0  0  0  0  0  0  0  0  0  0  0
    5.1191   43.1260   49.4115 H   0  0  0  0  0  0  0  0  0  0  0  0
    8.0627   43.2490   50.0679 H   0  0  0  0  0  0  0  0  0  0  0  0
    7.2401   43.7026   48.5595 H   0  0  0  0  0  0  0  0  0  0  0  0
    8.1332   45.4749   50.6077 H   0  0  0  0  0  0  0  0  0  0  0  0
    7.0646   45.9123   49.2590 H   0  0  0  0  0  0  0  0  0  0  0  0
    1.5777   45.9495   52.1364 H   0  0  0  0  0  0  0  0  0  0  0  0
   -0.9358   42.9128   55.3953 H   0  0  0  0  0  0  0  0  0  0  0  0
   -1.8883   43.8638   57.3131 H   0  0  0  0  0  0  0  0  0  0  0  0
   -0.2406   44.6120   57.1870 H   0  0  0  0  0  0  0  0  0  0  0  0
   -2.0573   46.2515   57.7937 H   0  0  0  0  0  0  0  0  0  0  0  0
   -1.1662   46.6491   56.2694 H   0  0  0  0  0  0  0  0  0  0  0  0
   -3.7816   45.8457   54.1013 H   0  0  0  0  0  0  0  0  0  0  0  0
   -2.0698   46.3825   54.2981 H   0  0  0  0  0  0  0  0  0  0  0  0
   -3.1591   43.5691   54.8279 H   0  0  0  0  0  0  0  0  0  0  0  0
   -2.1483   44.0887   53.4236 H   0  0  0  0  0  0  0  0  0  0  0  0
  1  2  2  0
  2  3  1  0
  3  4  1  0
  4  5  2  0
  5  6  1  0
  6  7  2  0
  7  8  1  0
  8  9  2  0
  9 10  1  0
 10 11  2  0
 11 12  1  0
 12 13  1  0
 13 14  1  0
 14 15  1  0
 15 16  1  0
 16 17  1  0
  2 18  1  0
 18 19  2  0
 19 20  1  0
 20 21  1  0
 21 22  1  0
 22 23  1  0
 23 24  1  0
 24 25  1  0
 25 26  1  0
 26 27  1  0
 21 28  2  0
 12  4  1  0
 17 13  1  0
 28 18  1  0
 11  6  1  0
 27 22  1  0
  3 29  1  0
  7 30  1  0
  8 31  1  0
  9 32  1  0
 10 33  1  0
 13 34  1  0
 14 35  1  0
 14 36  1  0
 15 37  1  0
 15 38  1  0
 16 39  1  0
 16 40  1  0
 17 41  1  0
 17 42  1  0
 19 43  1  0
 22 44  1  0
 23 45  1  0
 23 46  1  0
 24 47  1  0
 24 48  1  0
 26 49  1  0
 26 50  1  0
 27 51  1  0
 27 52  1  0
M  END
>  <meeko>  (3) 
{"is_sidechain": [false], "free_energy": -10.052, "intermolecular_energy": -12.438, "internal_energy": -0.044}

$$$$
ligand_20_conformer_4_docked
     RDKit          3D

 52 56  0  0  0  0  0  0  0  0999 V2000
    4.5450   44.5520   55.3310 O   0  0  0  0  0  0  0  0  0  0  0  0
    3.8300   45.5230   54.9650 C   0  0  0  0  0  0  0  0  0  0  0  0
    4.4340   46.6930   54.3860 N   0  0  0  0  0  0  0  0  0  0  0  0
    5.8200   46.7620   54.0020 C   0  0  0  0  0  0  0  0  0  0  0  0
    6.7850   47.2200   54.8410 N   0  0  0  0  0  0  0  0  0  0  0  0
    7.9070   47.0930   54.1170 C   0  0  0  0  0  0  0  0  0  0  0  0
    9.2030   47.4180   54.5120 C   0  0  0  0  0  0  0  0  0  0  0  0
   10.2430   47.1880   53.5960 C   0  0  0  0  0  0  0  0  0  0  0  0
    9.9670   46.6480   52.3200 C   0  0  0  0  0  0  0  0  0  0  0  0
    8.6460   46.3320   51.9510 C   0  0  0  0  0  0  0  0  0  0  0  0
    7.6300   46.5710   52.8860 C   0  0  0  0  0  0  0  0  0  0  0  0
    6.3010   46.3510   52.7870 N   0  0  0  0  0  0  0  0  0  0  0  0
    5.5790   45.7950   51.6250 C   0  0  0  0  0  0  0  0  0  0  0  0
    4.2150   46.4490   51.4130 C   0  0  0  0  0  0  0  0  0  0  0  0
    3.3360   45.3540   50.8370 C   0  0  0  0  0  0  0  0  0  0  0  0
    3.8800   44.0410   51.3840 C   0  0  0  0  0  0  0  0  0  0  0  0
    5.3440   44.2840   51.7410 C   0  0  0  0  0  0  0  0  0  0  0  0
    2.3710   45.4380   55.1610 C   0  0  0  0  0  0  0  0  0  0  0  0
    1.3980   45.3700   54.1860 C   0  0  0  0  0  0  0  0  0  0  0  0
    0.2390   45.3040   54.7910 O   0  0  0  0  0  0  0  0  0  0  0  0
    0.4710   45.3230   56.0850 C   0  0  0  0  0  0  0  0  0  0  0  0
   -0.6310   45.2970   57.1150 C   0  0  0  0  0  0  0  0  0  0  0  0
   -0.9220   46.6850   57.7250 C   0  0  0  0  0  0  0  0  0  0  0  0
   -1.8070   47.5420   56.8010 C   0  0  0  0  0  0  0  0  0  0  0  0
   -2.9910   46.8550   56.4410 O   0  0  0  0  0  0  0  0  0  0  0  0
   -2.6690   45.7090   55.6750 C   0  0  0  0  0  0  0  0  0  0  0  0
   -1.9150   44.6830   56.5300 C   0  0  0  0  0  0  0  0  0  0  0  0
    1.7870   45.4090   56.3740 N   0  0  0  0  0  0  0  0  0  0  0  0
    3.8340   47.5310   54.2500 H   0  0  0  0  0  0  0  0  0  0  0  0
    9.4050   47.8404   55.5074 H   0  0  0  0  0  0  0  0  0  0  0  0
   11.2794   47.4300   53.8742 H   0  0  0  0  0  0  0  0  0  0  0  0
   10.7894   46.4735   51.6106 H   0  0  0  0  0  0  0  0  0  0  0  0
    8.4185   45.9110   50.9606 H   0  0  0  0  0  0  0  0  0  0  0  0
    6.2374   46.0084   50.7700 H   0  0  0  0  0  0  0  0  0  0  0  0
    3.8067   46.8090   52.3689 H   0  0  0  0  0  0  0  0  0  0  0  0
    4.2759   47.3218   50.7462 H   0  0  0  0  0  0  0  0  0  0  0  0
    2.2924   45.4962   51.1544 H   0  0  0  0  0  0  0  0  0  0  0  0
    3.3492   45.3663   49.7371 H   0  0  0  0  0  0  0  0  0  0  0  0
    3.3165   43.7417   52.2800 H   0  0  0  0  0  0  0  0  0  0  0  0
    3.7835   43.2345   50.6422 H   0  0  0  0  0  0  0  0  0  0  0  0
    5.5450   43.9465   52.7685 H   0  0  0  0  0  0  0  0  0  0  0  0
    6.0136   43.7260   51.0699 H   0  0  0  0  0  0  0  0  0  0  0  0
    1.5652   45.3710   53.0988 H   0  0  0  0  0  0  0  0  0  0  0  0
   -0.2711   44.6604   57.9367 H   0  0  0  0  0  0  0  0  0  0  0  0
   -1.4378   46.5500   58.6871 H   0  0  0  0  0  0  0  0  0  0  0  0
    0.0369   47.2068   57.8601 H   0  0  0  0  0  0  0  0  0  0  0  0
   -2.0769   48.4713   57.3241 H   0  0  0  0  0  0  0  0  0  0  0  0
   -1.2407   47.7621   55.8840 H   0  0  0  0  0  0  0  0  0  0  0  0
   -3.5967   45.2537   55.2981 H   0  0  0  0  0  0  0  0  0  0  0  0
   -2.0260   46.0125   54.8357 H   0  0  0  0  0  0  0  0  0  0  0  0
   -2.5648   44.3531   57.3540 H   0  0  0  0  0  0  0  0  0  0  0  0
   -1.6393   43.8288   55.8941 H   0  0  0  0  0  0  0  0  0  0  0  0
  1  2  2  0
  2  3  1  0
  3  4  1  0
  4  5  2  0
  5  6  1  0
  6  7  2  0
  7  8  1  0
  8  9  2  0
  9 10  1  0
 10 11  2  0
 11 12  1  0
 12 13  1  0
 13 14  1  0
 14 15  1  0
 15 16  1  0
 16 17  1  0
  2 18  1  0
 18 19  2  0
 19 20  1  0
 20 21  1  0
 21 22  1  0
 22 23  1  0
 23 24  1  0
 24 25  1  0
 25 26  1  0
 26 27  1  0
 21 28  2  0
 12  4  1  0
 17 13  1  0
 28 18  1  0
 11  6  1  0
 27 22  1  0
  3 29  1  0
  7 30  1  0
  8 31  1  0
  9 32  1  0
 10 33  1  0
 13 34  1  0
 14 35  1  0
 14 36  1  0
 15 37  1  0
 15 38  1  0
 16 39  1  0
 16 40  1  0
 17 41  1  0
 17 42  1  0
 19 43  1  0
 22 44  1  0
 23 45  1  0
 23 46  1  0
 24 47  1  0
 24 48  1  0
 26 49  1  0
 26 50  1  0
 27 51  1  0
 27 52  1  0
M  END
>  <meeko>  (4) 
{"is_sidechain": [false], "free_energy": -10.034, "intermolecular_energy": -11.808, "internal_energy": -0.652}

$$$$
ligand_20_conformer_4_docked
     RDKit          3D

 52 56  0  0  0  0  0  0  0  0999 V2000
    4.6800   43.3020   52.1410 O   0  0  0  0  0  0  0  0  0  0  0  0
    4.7630   44.3460   51.4390 C   0  0  0  0  0  0  0  0  0  0  0  0
    3.5720   45.0290   51.0090 N   0  0  0  0  0  0  0  0  0  0  0  0
    2.2550   44.7100   51.4970 C   0  0  0  0  0  0  0  0  0  0  0  0
    1.4150   43.8760   50.8310 N   0  0  0  0  0  0  0  0  0  0  0  0
    0.3340   43.8310   51.6230 C   0  0  0  0  0  0  0  0  0  0  0  0
   -0.8370   43.1080   51.4080 C   0  0  0  0  0  0  0  0  0  0  0  0
   -1.8470   43.1910   52.3810 C   0  0  0  0  0  0  0  0  0  0  0  0
   -1.6660   43.9900   53.5320 C   0  0  0  0  0  0  0  0  0  0  0  0
   -0.4720   44.7110   53.7190 C   0  0  0  0  0  0  0  0  0  0  0  0
    0.5180   44.6070   52.7330 C   0  0  0  0  0  0  0  0  0  0  0  0
    1.7390   45.1800   52.6750 N   0  0  0  0  0  0  0  0  0  0  0  0
    2.3380   46.0920   53.6710 C   0  0  0  0  0  0  0  0  0  0  0  0
    3.1820   47.1900   53.0290 C   0  0  0  0  0  0  0  0  0  0  0  0
    4.2910   47.4720   54.0260 C   0  0  0  0  0  0  0  0  0  0  0  0
    4.5270   46.1680   54.7770 C   0  0  0  0  0  0  0  0  0  0  0  0
    3.2340   45.3620   54.6790 C   0  0  0  0  0  0  0  0  0  0  0  0
    6.1000   44.8350   51.0580 C   0  0  0  0  0  0  0  0  0  0  0  0
    6.9520   44.2920   50.1180 C   0  0  0  0  0  0  0  0  0  0  0  0
    8.0300   45.0350   50.0900 O   0  0  0  0  0  0  0  0  0  0  0  0
    7.8630   46.0020   50.9640 C   0  0  0  0  0  0  0  0  0  0  0  0
    8.9150   47.0470   51.2420 C   0  0  0  0  0  0  0  0  0  0  0  0
    8.3790   48.2440   52.0560 C   0  0  0  0  0  0  0  0  0  0  0  0
    8.3000   47.9240   53.5610 C   0  0  0  0  0  0  0  0  0  0  0  0
    9.5420   47.4530   54.0520 O   0  0  0  0  0  0  0  0  0  0  0  0
    9.8690   46.2210   53.4350 C   0  0  0  0  0  0  0  0  0  0  0  0
   10.1370   46.4230   51.9380 C   0  0  0  0  0  0  0  0  0  0  0  0
    6.6740   45.9250   51.6000 N   0  0  0  0  0  0  0  0  0  0  0  0
    3.6760   45.7830   50.3020 H   0  0  0  0  0  0  0  0  0  0  0  0
   -0.9667   42.4922   50.5058 H   0  0  0  0  0  0  0  0  0  0  0  0
   -2.7840   42.6308   52.2459 H   0  0  0  0  0  0  0  0  0  0  0  0
   -2.4637   44.0489   54.2871 H   0  0  0  0  0  0  0  0  0  0  0  0
   -0.3207   45.3365   54.6111 H   0  0  0  0  0  0  0  0  0  0  0  0
    1.4734   46.5339   54.1879 H   0  0  0  0  0  0  0  0  0  0  0  0
    3.6015   46.8448   52.0725 H   0  0  0  0  0  0  0  0  0  0  0  0
    2.5884   48.0894   52.8083 H   0  0  0  0  0  0  0  0  0  0  0  0
    5.2068   47.7810   53.5008 H   0  0  0  0  0  0  0  0  0  0  0  0
    4.0162   48.2865   54.7124 H   0  0  0  0  0  0  0  0  0  0  0  0
    5.3563   45.6108   54.3168 H   0  0  0  0  0  0  0  0  0  0  0  0
    4.7937   46.3599   55.8268 H   0  0  0  0  0  0  0  0  0  0  0  0
    3.4483   44.3420   54.3273 H   0  0  0  0  0  0  0  0  0  0  0  0
    2.7426   45.2796   55.6597 H   0  0  0  0  0  0  0  0  0  0  0  0
    6.7608   43.3990   49.5048 H   0  0  0  0  0  0  0  0  0  0  0  0
    9.2229   47.4441   50.2635 H   0  0  0  0  0  0  0  0  0  0  0  0
    9.0502   49.1031   51.9096 H   0  0  0  0  0  0  0  0  0  0  0  0
    7.3628   48.4707   51.7012 H   0  0  0  0  0  0  0  0  0  0  0  0
    8.0215   48.8371   54.1075 H   0  0  0  0  0  0  0  0  0  0  0  0
    7.5463   47.1367   53.7098 H   0  0  0  0  0  0  0  0  0  0  0  0
   10.7696   45.8058   53.9110 H   0  0  0  0  0  0  0  0  0  0  0  0
    9.0228   45.5283   53.5542 H   0  0  0  0  0  0  0  0  0  0  0  0
   11.0024   47.0906   51.8137 H   0  0  0  0  0  0  0  0  0  0  0  0
   10.3398   45.4430   51.4814 H   0  0  0  0  0  0  0  0  0  0  0  0
  1  2  2  0
  2  3  1  0
  3  4  1  0
  4  5  2  0
  5  6  1  0
  6  7  2  0
  7  8  1  0
  8  9  2  0
  9 10  1  0
 10 11  2  0
 11 12  1  0
 12 13  1  0
 13 14  1  0
 14 15  1  0
 15 16  1  0
 16 17  1  0
  2 18  1  0
 18 19  2  0
 19 20  1  0
 20 21  1  0
 21 22  1  0
 22 23  1  0
 23 24  1  0
 24 25  1  0
 25 26  1  0
 26 27  1  0
 21 28  2  0
 12  4  1  0
 17 13  1  0
 28 18  1  0
 11  6  1  0
 27 22  1  0
  3 29  1  0
  7 30  1  0
  8 31  1  0
  9 32  1  0
 10 33  1  0
 13 34  1  0
 14 35  1  0
 14 36  1  0
 15 37  1  0
 15 38  1  0
 16 39  1  0
 16 40  1  0
 17 41  1  0
 17 42  1  0
 19 43  1  0
 22 44  1  0
 23 45  1  0
 23 46  1  0
 24 47  1  0
 24 48  1  0
 26 49  1  0
 26 50  1  0
 27 51  1  0
 27 52  1  0
M  END
>  <meeko>  (5) 
{"is_sidechain": [false], "free_energy": -9.842, "intermolecular_energy": -11.342, "internal_energy": -0.88}

$$$$
