ligand_88_conformer_1_docked
     RDKit          3D

 47 49  0  0  0  0  0  0  0  0999 V2000
    6.0280   41.3610   49.3130 C   0  0  0  0  0  0  0  0  0  0  0  0
    6.4750   42.7430   49.6820 C   0  0  0  0  0  0  0  0  0  0  0  0
    5.6390   43.5780   50.4400 C   0  0  0  0  0  0  0  0  0  0  0  0
    6.0700   44.8530   50.8160 C   0  0  0  0  0  0  0  0  0  0  0  0
    7.3500   45.3060   50.4580 C   0  0  0  0  0  0  0  0  0  0  0  0
    7.8200   46.6820   50.8740 C   0  0  0  0  0  0  0  0  0  0  0  0
    8.2010   46.8050   52.3800 C   0  0  0  0  0  0  0  0  0  0  0  0
    8.4370   48.2760   52.7900 C   0  0  0  0  0  0  0  0  0  0  0  0
    9.4990   46.0130   52.6630 C   0  0  0  0  0  0  0  0  0  0  0  0
    7.1170   46.2290   53.2050 N   0  0  0  0  0  0  0  0  0  0  0  0
    5.8700   46.8870   53.5090 C   0  0  0  0  0  0  0  0  0  0  0  0
    5.6560   48.0650   53.1160 O   0  0  0  0  0  0  0  0  0  0  0  0
    4.8190   46.2070   54.2910 C   0  0  0  0  0  0  0  0  0  0  0  0
    3.4500   46.3150   54.1270 C   0  0  0  0  0  0  0  0  0  0  0  0
    2.9420   45.4880   55.1070 C   0  0  0  0  0  0  0  0  0  0  0  0
    1.5270   45.2240   55.3900 C   0  0  0  0  0  0  0  0  0  0  0  0
    0.8910   45.3780   56.6100 C   0  0  0  0  0  0  0  0  0  0  0  0
   -0.4180   45.0200   56.3610 C   0  0  0  0  0  0  0  0  0  0  0  0
   -0.5230   44.6680   55.0660 N   0  0  0  0  0  0  0  0  0  0  0  0
   -1.7520   44.2890   54.3830 C   0  0  0  0  0  0  0  0  0  0  0  0
    0.6470   44.8000   54.4630 N   0  0  0  0  0  0  0  0  0  0  0  0
    3.9390   44.9550   55.7720 O   0  0  0  0  0  0  0  0  0  0  0  0
    5.0840   45.3650   55.3100 N   0  0  0  0  0  0  0  0  0  0  0  0
    8.1890   44.4640   49.7100 C   0  0  0  0  0  0  0  0  0  0  0  0
    7.7570   43.1890   49.3320 C   0  0  0  0  0  0  0  0  0  0  0  0
    5.8400   40.7799   50.2279 H   0  0  0  0  0  0  0  0  0  0  0  0
    5.1034   41.4208   48.7201 H   0  0  0  0  0  0  0  0  0  0  0  0
    6.8125   40.8679   48.7201 H   0  0  0  0  0  0  0  0  0  0  0  0
    4.6403   43.2271   50.7393 H   0  0  0  0  0  0  0  0  0  0  0  0
    5.4019   45.5063   51.3964 H   0  0  0  0  0  0  0  0  0  0  0  0
    8.7048   46.9393   50.2733 H   0  0  0  0  0  0  0  0  0  0  0  0
    6.9745   47.3657   50.7076 H   0  0  0  0  0  0  0  0  0  0  0  0
    8.4494   48.3534   53.8872 H   0  0  0  0  0  0  0  0  0  0  0  0
    9.4016   48.6186   52.3873 H   0  0  0  0  0  0  0  0  0  0  0  0
    7.6280   48.9032   52.3873 H   0  0  0  0  0  0  0  0  0  0  0  0
    9.6447   45.9241   53.7497 H   0  0  0  0  0  0  0  0  0  0  0  0
    9.4199   45.0091   52.2203 H   0  0  0  0  0  0  0  0  0  0  0  0
   10.3555   46.5425   52.2203 H   0  0  0  0  0  0  0  0  0  0  0  0
    7.2580   45.2700   53.5930 H   0  0  0  0  0  0  0  0  0  0  0  0
    2.8978   46.9171   53.3904 H   0  0  0  0  0  0  0  0  0  0  0  0
    1.3299   45.7105   57.5623 H   0  0  0  0  0  0  0  0  0  0  0  0
   -1.2366   45.0219   57.0958 H   0  0  0  0  0  0  0  0  0  0  0  0
   -2.5263   44.0502   55.1270 H   0  0  0  0  0  0  0  0  0  0  0  0
   -2.0937   45.1235   53.7531 H   0  0  0  0  0  0  0  0  0  0  0  0
   -1.5644   43.4070   53.7531 H   0  0  0  0  0  0  0  0  0  0  0  0
    9.1921   44.8097   49.4197 H   0  0  0  0  0  0  0  0  0  0  0  0
    8.4266   42.5325   48.7570 H   0  0  0  0  0  0  0  0  0  0  0  0
  1  2  1  0
  2  3  2  0
  3  4  1  0
  4  5  2  0
  5  6  1  0
  6  7  1  0
  7  8  1  0
  7  9  1  0
  7 10  1  0
 10 11  1  0
 11 12  2  0
 11 13  1  0
 13 14  1  0
 14 15  2  0
 15 16  1  0
 16 17  1  0
 17 18  2  0
 18 19  1  0
 19 20  1  0
 19 21  1  0
 15 22  1  0
 22 23  1  0
  5 24  1  0
 24 25  2  0
 25  2  1  0
 23 13  2  0
 21 16  2  0
  1 26  1  0
  1 27  1  0
  1 28  1  0
  3 29  1  0
  4 30  1  0
  6 31  1  0
  6 32  1  0
  8 33  1  0
  8 34  1  0
  8 35  1  0
  9 36  1  0
  9 37  1  0
  9 38  1  0
 10 39  1  0
 14 40  1  0
 17 41  1  0
 18 42  1  0
 20 43  1  0
 20 44  1  0
 20 45  1  0
 24 46  1  0
 25 47  1  0
M  END
>  <meeko>  (1) 
{"is_sidechain": [false], "free_energy": -8.982, "intermolecular_energy": -11.608, "internal_energy": 0.247}

$$$$
ligand_88_conformer_1_docked
     RDKit          3D

 47 49  0  0  0  0  0  0  0  0999 V2000
    9.8900   47.1200   53.1010 C   0  0  0  0  0  0  0  0  0  0  0  0
    9.3180   46.2880   51.9920 C   0  0  0  0  0  0  0  0  0  0  0  0
   10.1230   45.3550   51.3220 C   0  0  0  0  0  0  0  0  0  0  0  0
    9.5820   44.5530   50.3140 C   0  0  0  0  0  0  0  0  0  0  0  0
    8.2240   44.6590   49.9730 C   0  0  0  0  0  0  0  0  0  0  0  0
    7.6360   43.7830   48.8880 C   0  0  0  0  0  0  0  0  0  0  0  0
    6.6530   42.6900   49.4030 C   0  0  0  0  0  0  0  0  0  0  0  0
    7.4040   41.5100   50.0590 C   0  0  0  0  0  0  0  0  0  0  0  0
    5.8170   42.1340   48.2260 C   0  0  0  0  0  0  0  0  0  0  0  0
    5.7260   43.2940   50.3850 N   0  0  0  0  0  0  0  0  0  0  0  0
    4.7190   42.5730   51.1240 C   0  0  0  0  0  0  0  0  0  0  0  0
    4.5330   41.3440   50.9190 O   0  0  0  0  0  0  0  0  0  0  0  0
    3.8790   43.2510   52.1300 C   0  0  0  0  0  0  0  0  0  0  0  0
    2.5630   42.9700   52.4510 C   0  0  0  0  0  0  0  0  0  0  0  0
    2.2680   43.8910   53.4350 C   0  0  0  0  0  0  0  0  0  0  0  0
    0.9910   44.0470   54.1400 C   0  0  0  0  0  0  0  0  0  0  0  0
   -0.2210   43.4850   53.7780 C   0  0  0  0  0  0  0  0  0  0  0  0
   -1.1000   43.9120   54.7520 C   0  0  0  0  0  0  0  0  0  0  0  0
   -0.4270   44.6900   55.6210 N   0  0  0  0  0  0  0  0  0  0  0  0
   -0.9740   45.2850   56.8320 C   0  0  0  0  0  0  0  0  0  0  0  0
    0.8460   44.7680   55.2680 N   0  0  0  0  0  0  0  0  0  0  0  0
    3.3280   44.6330   53.6550 O   0  0  0  0  0  0  0  0  0  0  0  0
    4.3160   44.2770   52.8880 N   0  0  0  0  0  0  0  0  0  0  0  0
    7.4170   45.5850   50.6530 C   0  0  0  0  0  0  0  0  0  0  0  0
    7.9600   46.3880   51.6610 C   0  0  0  0  0  0  0  0  0  0  0  0
    9.5954   46.6915   54.0703 H   0  0  0  0  0  0  0  0  0  0  0  0
   10.9872   47.1306   53.0230 H   0  0  0  0  0  0  0  0  0  0  0  0
    9.5070   48.1482   53.0230 H   0  0  0  0  0  0  0  0  0  0  0  0
   11.1848   45.2543   51.5913 H   0  0  0  0  0  0  0  0  0  0  0  0
   10.2240   43.8339   49.7841 H   0  0  0  0  0  0  0  0  0  0  0  0
    7.0930   44.4284   48.1818 H   0  0  0  0  0  0  0  0  0  0  0  0
    8.4795   43.2515   48.4232 H   0  0  0  0  0  0  0  0  0  0  0  0
    7.3458   41.6015   51.1536 H   0  0  0  0  0  0  0  0  0  0  0  0
    6.9428   40.5619   49.7452 H   0  0  0  0  0  0  0  0  0  0  0  0
    8.4582   41.5264   49.7452 H   0  0  0  0  0  0  0  0  0  0  0  0
    4.9619   41.5653   48.6201 H   0  0  0  0  0  0  0  0  0  0  0  0
    5.4500   42.9685   47.6105 H   0  0  0  0  0  0  0  0  0  0  0  0
    6.4447   41.4728   47.6105 H   0  0  0  0  0  0  0  0  0  0  0  0
    5.8070   44.3190   50.5630 H   0  0  0  0  0  0  0  0  0  0  0  0
    1.9079   42.1966   52.0236 H   0  0  0  0  0  0  0  0  0  0  0  0
   -0.4349   42.8434   52.9105 H   0  0  0  0  0  0  0  0  0  0  0  0
   -2.1692   43.6597   54.8090 H   0  0  0  0  0  0  0  0  0  0  0  0
   -0.5279   44.7998   57.7127 H   0  0  0  0  0  0  0  0  0  0  0  0
   -0.7425   46.3602   56.8491 H   0  0  0  0  0  0  0  0  0  0  0  0
   -2.0649   45.1445   56.8491 H   0  0  0  0  0  0  0  0  0  0  0  0
    6.3527   45.6793   50.3917 H   0  0  0  0  0  0  0  0  0  0  0  0
    7.3175   47.1021   52.1970 H   0  0  0  0  0  0  0  0  0  0  0  0
  1  2  1  0
  2  3  2  0
  3  4  1  0
  4  5  2  0
  5  6  1  0
  6  7  1  0
  7  8  1  0
  7  9  1  0
  7 10  1  0
 10 11  1  0
 11 12  2  0
 11 13  1  0
 13 14  1  0
 14 15  2  0
 15 16  1  0
 16 17  1  0
 17 18  2  0
 18 19  1  0
 19 20  1  0
 19 21  1  0
 15 22  1  0
 22 23  1  0
  5 24  1  0
 24 25  2  0
 25  2  1  0
 23 13  2  0
 21 16  2  0
  1 26  1  0
  1 27  1  0
  1 28  1  0
  3 29  1  0
  4 30  1  0
  6 31  1  0
  6 32  1  0
  8 33  1  0
  8 34  1  0
  8 35  1  0
  9 36  1  0
  9 37  1  0
  9 38  1  0
 10 39  1  0
 14 40  1  0
 17 41  1  0
 18 42  1  0
 20 43  1  0
 20 44  1  0
 20 45  1  0
 24 46  1  0
 25 47  1  0
M  END
>  <meeko>  (2) 
{"is_sidechain": [false], "free_energy": -8.566, "intermolecular_energy": -11.118, "internal_energy": 0.295}

$$$$
ligand_88_conformer_1_docked
     RDKit          3D

 47 49  0  0  0  0  0  0  0  0999 V2000
    9.0720   46.9900   52.0130 C   0  0  0  0  0  0  0  0  0  0  0  0
    7.6690   46.5180   51.7770 C   0  0  0  0  0  0  0  0  0  0  0  0
    6.6140   47.0140   52.5590 C   0  0  0  0  0  0  0  0  0  0  0  0
    5.3020   46.6030   52.3150 C   0  0  0  0  0  0  0  0  0  0  0  0
    5.0200   45.7040   51.2730 C   0  0  0  0  0  0  0  0  0  0  0  0
    3.5970   45.2670   51.0030 C   0  0  0  0  0  0  0  0  0  0  0  0
    3.1040   44.0880   51.8950 C   0  0  0  0  0  0  0  0  0  0  0  0
    4.2770   43.3940   52.6210 C   0  0  0  0  0  0  0  0  0  0  0  0
    2.3830   43.0330   51.0240 C   0  0  0  0  0  0  0  0  0  0  0  0
    2.1390   44.6030   52.8910 N   0  0  0  0  0  0  0  0  0  0  0  0
    1.2870   43.7840   53.7180 C   0  0  0  0  0  0  0  0  0  0  0  0
    1.2820   42.5310   53.5860 O   0  0  0  0  0  0  0  0  0  0  0  0
    0.3980   44.3860   54.7300 C   0  0  0  0  0  0  0  0  0  0  0  0
    0.6690   45.4690   55.5470 C   0  0  0  0  0  0  0  0  0  0  0  0
   -0.4830   45.6040   56.2940 C   0  0  0  0  0  0  0  0  0  0  0  0
   -0.7460   46.6070   57.3320 C   0  0  0  0  0  0  0  0  0  0  0  0
   -1.8000   47.5050   57.3590 C   0  0  0  0  0  0  0  0  0  0  0  0
   -1.6150   48.2140   58.5270 C   0  0  0  0  0  0  0  0  0  0  0  0
   -0.5040   47.7540   59.1330 N   0  0  0  0  0  0  0  0  0  0  0  0
    0.0040   48.1900   60.4260 C   0  0  0  0  0  0  0  0  0  0  0  0
    0.0250   46.7690   58.4250 N   0  0  0  0  0  0  0  0  0  0  0  0
   -1.3360   44.6750   55.9330 O   0  0  0  0  0  0  0  0  0  0  0  0
   -0.8400   43.9230   54.9950 N   0  0  0  0  0  0  0  0  0  0  0  0
    6.0740   45.2180   50.4840 C   0  0  0  0  0  0  0  0  0  0  0  0
    7.3880   45.6290   50.7290 C   0  0  0  0  0  0  0  0  0  0  0  0
    9.2604   47.0534   53.0949 H   0  0  0  0  0  0  0  0  0  0  0  0
    9.7790   46.2802   51.5587 H   0  0  0  0  0  0  0  0  0  0  0  0
    9.2062   47.9828   51.5587 H   0  0  0  0  0  0  0  0  0  0  0  0
    6.8218   47.7299   53.3679 H   0  0  0  0  0  0  0  0  0  0  0  0
    4.4839   46.9857   52.9428 H   0  0  0  0  0  0  0  0  0  0  0  0
    2.9345   46.1282   51.1745 H   0  0  0  0  0  0  0  0  0  0  0  0
    3.5718   44.9059   49.9643 H   0  0  0  0  0  0  0  0  0  0  0  0
    4.1359   43.4775   53.7087 H   0  0  0  0  0  0  0  0  0  0  0  0
    4.3080   42.3321   52.3357 H   0  0  0  0  0  0  0  0  0  0  0  0
    5.2227   43.8781   52.3357 H   0  0  0  0  0  0  0  0  0  0  0  0
    1.8825   42.3006   51.6744 H   0  0  0  0  0  0  0  0  0  0  0  0
    1.6353   43.5307   50.3890 H   0  0  0  0  0  0  0  0  0  0  0  0
    3.1184   42.5172   50.3890 H   0  0  0  0  0  0  0  0  0  0  0  0
    2.0710   45.6370   53.0130 H   0  0  0  0  0  0  0  0  0  0  0  0
    1.5845   46.0773   55.5906 H   0  0  0  0  0  0  0  0  0  0  0  0
   -2.6029   47.6254   56.6168 H   0  0  0  0  0  0  0  0  0  0  0  0
   -2.2649   49.0191   58.9005 H   0  0  0  0  0  0  0  0  0  0  0  0
   -0.5669   47.7000   61.2284 H   0  0  0  0  0  0  0  0  0  0  0  0
    1.0663   47.9182   60.5132 H   0  0  0  0  0  0  0  0  0  0  0  0
   -0.1036   49.2812   60.5132 H   0  0  0  0  0  0  0  0  0  0  0  0
    5.8654   44.5099   49.6684 H   0  0  0  0  0  0  0  0  0  0  0  0
    8.2057   45.2531   50.0965 H   0  0  0  0  0  0  0  0  0  0  0  0
  1  2  1  0
  2  3  2  0
  3  4  1  0
  4  5  2  0
  5  6  1  0
  6  7  1  0
  7  8  1  0
  7  9  1  0
  7 10  1  0
 10 11  1  0
 11 12  2  0
 11 13  1  0
 13 14  1  0
 14 15  2  0
 15 16  1  0
 16 17  1  0
 17 18  2  0
 18 19  1  0
 19 20  1  0
 19 21  1  0
 15 22  1  0
 22 23  1  0
  5 24  1  0
 24 25  2  0
 25  2  1  0
 23 13  2  0
 21 16  2  0
  1 26  1  0
  1 27  1  0
  1 28  1  0
  3 29  1  0
  4 30  1  0
  6 31  1  0
  6 32  1  0
  8 33  1  0
  8 34  1  0
  8 35  1  0
  9 36  1  0
  9 37  1  0
  9 38  1  0
 10 39  1  0
 14 40  1  0
 17 41  1  0
 18 42  1  0
 20 43  1  0
 20 44  1  0
 20 45  1  0
 24 46  1  0
 25 47  1  0
M  END
>  <meeko>  (3) 
{"is_sidechain": [false], "free_energy": -8.465, "intermolecular_energy": -10.817, "internal_energy": 0.125}

$$$$
ligand_88_conformer_1_docked
     RDKit          3D

 47 49  0  0  0  0  0  0  0  0999 V2000
   10.6310   46.3420   51.8740 C   0  0  0  0  0  0  0  0  0  0  0  0
    9.1670   46.4300   52.1890 C   0  0  0  0  0  0  0  0  0  0  0  0
    8.2130   46.0720   51.2250 C   0  0  0  0  0  0  0  0  0  0  0  0
    6.8510   46.1190   51.5300 C   0  0  0  0  0  0  0  0  0  0  0  0
    6.4210   46.5060   52.8100 C   0  0  0  0  0  0  0  0  0  0  0  0
    4.9460   46.5470   53.1430 C   0  0  0  0  0  0  0  0  0  0  0  0
    4.3140   45.1540   53.4450 C   0  0  0  0  0  0  0  0  0  0  0  0
    2.7930   45.2610   53.6920 C   0  0  0  0  0  0  0  0  0  0  0  0
    4.9650   44.5410   54.7070 C   0  0  0  0  0  0  0  0  0  0  0  0
    4.5690   44.2470   52.3040 N   0  0  0  0  0  0  0  0  0  0  0  0
    3.8480   43.0270   52.0410 C   0  0  0  0  0  0  0  0  0  0  0  0
    2.9590   42.6250   52.8380 O   0  0  0  0  0  0  0  0  0  0  0  0
    4.1310   42.2160   50.8410 C   0  0  0  0  0  0  0  0  0  0  0  0
    3.2180   41.5520   50.0420 C   0  0  0  0  0  0  0  0  0  0  0  0
    4.0070   40.9570   49.0790 C   0  0  0  0  0  0  0  0  0  0  0  0
    3.5520   40.1180   47.9640 C   0  0  0  0  0  0  0  0  0  0  0  0
    3.7160   40.3850   46.6150 C   0  0  0  0  0  0  0  0  0  0  0  0
    3.1370   39.3060   45.9810 C   0  0  0  0  0  0  0  0  0  0  0  0
    2.6560   38.4690   46.9190 N   0  0  0  0  0  0  0  0  0  0  0  0
    2.0290   37.1780   46.6700 C   0  0  0  0  0  0  0  0  0  0  0  0
    2.9130   38.9440   48.1270 N   0  0  0  0  0  0  0  0  0  0  0  0
    5.2620   41.2580   49.3110 O   0  0  0  0  0  0  0  0  0  0  0  0
    5.3760   42.0140   50.3640 N   0  0  0  0  0  0  0  0  0  0  0  0
    7.3780   46.8530   53.7770 C   0  0  0  0  0  0  0  0  0  0  0  0
    8.7420   46.8070   53.4710 C   0  0  0  0  0  0  0  0  0  0  0  0
   11.2062   46.3074   52.8110 H   0  0  0  0  0  0  0  0  0  0  0  0
   10.8263   45.4305   51.2900 H   0  0  0  0  0  0  0  0  0  0  0  0
   10.9340   47.2235   51.2900 H   0  0  0  0  0  0  0  0  0  0  0  0
    8.5392   45.7528   50.2242 H   0  0  0  0  0  0  0  0  0  0  0  0
    6.1098   45.8511   50.7626 H   0  0  0  0  0  0  0  0  0  0  0  0
    4.8111   47.1851   54.0288 H   0  0  0  0  0  0  0  0  0  0  0  0
    4.4339   46.9369   52.2510 H   0  0  0  0  0  0  0  0  0  0  0  0
    2.5974   45.2748   54.7744 H   0  0  0  0  0  0  0  0  0  0  0  0
    2.4123   46.1882   53.2388 H   0  0  0  0  0  0  0  0  0  0  0  0
    2.2862   44.3963   53.2388 H   0  0  0  0  0  0  0  0  0  0  0  0
    4.5033   44.9758   55.6058 H   0  0  0  0  0  0  0  0  0  0  0  0
    4.8117   43.4517   54.7064 H   0  0  0  0  0  0  0  0  0  0  0  0
    6.0431   44.7595   54.7064 H   0  0  0  0  0  0  0  0  0  0  0  0
    5.3240   44.5100   51.6340 H   0  0  0  0  0  0  0  0  0  0  0  0
    2.1241   41.5086   50.1487 H   0  0  0  0  0  0  0  0  0  0  0  0
    4.1986   41.2594   46.1539 H   0  0  0  0  0  0  0  0  0  0  0  0
    3.0782   39.1549   44.8930 H   0  0  0  0  0  0  0  0  0  0  0  0
    1.7937   36.6936   47.6291 H   0  0  0  0  0  0  0  0  0  0  0  0
    1.1020   37.3251   46.0964 H   0  0  0  0  0  0  0  0  0  0  0  0
    2.7178   36.5404   46.0964 H   0  0  0  0  0  0  0  0  0  0  0  0
    7.0531   47.1629   54.7812 H   0  0  0  0  0  0  0  0  0  0  0  0
    9.4847   47.0677   54.2394 H   0  0  0  0  0  0  0  0  0  0  0  0
  1  2  1  0
  2  3  2  0
  3  4  1  0
  4  5  2  0
  5  6  1  0
  6  7  1  0
  7  8  1  0
  7  9  1  0
  7 10  1  0
 10 11  1  0
 11 12  2  0
 11 13  1  0
 13 14  1  0
 14 15  2  0
 15 16  1  0
 16 17  1  0
 17 18  2  0
 18 19  1  0
 19 20  1  0
 19 21  1  0
 15 22  1  0
 22 23  1  0
  5 24  1  0
 24 25  2  0
 25  2  1  0
 23 13  2  0
 21 16  2  0
  1 26  1  0
  1 27  1  0
  1 28  1  0
  3 29  1  0
  4 30  1  0
  6 31  1  0
  6 32  1  0
  8 33  1  0
  8 34  1  0
  8 35  1  0
  9 36  1  0
  9 37  1  0
  9 38  1  0
 10 39  1  0
 14 40  1  0
 17 41  1  0
 18 42  1  0
 20 43  1  0
 20 44  1  0
 20 45  1  0
 24 46  1  0
 25 47  1  0
M  END
>  <meeko>  (4) 
{"is_sidechain": [false], "free_energy": -8.417, "intermolecular_energy": -10.935, "internal_energy": 0.305}

$$$$
ligand_88_conformer_1_docked
     RDKit          3D

 47 49  0  0  0  0  0  0  0  0999 V2000
    9.8950   46.7630   51.8990 C   0  0  0  0  0  0  0  0  0  0  0  0
    8.4820   46.3450   52.1780 C   0  0  0  0  0  0  0  0  0  0  0  0
    7.6360   45.9640   51.1250 C   0  0  0  0  0  0  0  0  0  0  0  0
    6.3320   45.5380   51.3870 C   0  0  0  0  0  0  0  0  0  0  0  0
    5.8580   45.4690   52.7080 C   0  0  0  0  0  0  0  0  0  0  0  0
    4.4490   44.9980   52.9920 C   0  0  0  0  0  0  0  0  0  0  0  0
    3.3420   46.0510   52.6840 C   0  0  0  0  0  0  0  0  0  0  0  0
    3.0320   46.1260   51.1730 C   0  0  0  0  0  0  0  0  0  0  0  0
    3.8020   47.4520   53.1520 C   0  0  0  0  0  0  0  0  0  0  0  0
    2.1130   45.6950   53.4260 N   0  0  0  0  0  0  0  0  0  0  0  0
    1.4860   44.3970   53.4110 C   0  0  0  0  0  0  0  0  0  0  0  0
    1.9440   43.4730   52.6870 O   0  0  0  0  0  0  0  0  0  0  0  0
    0.2930   44.1160   54.2330 C   0  0  0  0  0  0  0  0  0  0  0  0
   -0.2110   44.8810   55.2700 C   0  0  0  0  0  0  0  0  0  0  0  0
   -1.3160   44.1690   55.6880 C   0  0  0  0  0  0  0  0  0  0  0  0
   -2.2350   44.5270   56.7750 C   0  0  0  0  0  0  0  0  0  0  0  0
   -3.2370   43.7290   57.2990 C   0  0  0  0  0  0  0  0  0  0  0  0
   -3.8020   44.5000   58.2940 C   0  0  0  0  0  0  0  0  0  0  0  0
   -3.1630   45.6840   58.3290 N   0  0  0  0  0  0  0  0  0  0  0  0
   -3.4090   46.7580   59.2810 C   0  0  0  0  0  0  0  0  0  0  0  0
   -2.2010   45.7080   57.4210 N   0  0  0  0  0  0  0  0  0  0  0  0
   -1.4310   43.0900   54.9500 O   0  0  0  0  0  0  0  0  0  0  0  0
   -0.4800   43.0240   54.0650 N   0  0  0  0  0  0  0  0  0  0  0  0
    6.7100   45.8400   53.7610 C   0  0  0  0  0  0  0  0  0  0  0  0
    8.0150   46.2670   53.4980 C   0  0  0  0  0  0  0  0  0  0  0  0
   10.4255   46.9199   52.8498 H   0  0  0  0  0  0  0  0  0  0  0  0
   10.4027   45.9766   51.3213 H   0  0  0  0  0  0  0  0  0  0  0  0
    9.8932   47.6991   51.3213 H   0  0  0  0  0  0  0  0  0  0  0  0
    8.0018   46.0011   50.0883 H   0  0  0  0  0  0  0  0  0  0  0  0
    5.6718   45.2547   50.5540 H   0  0  0  0  0  0  0  0  0  0  0  0
    4.2547   44.1057   52.3788 H   0  0  0  0  0  0  0  0  0  0  0  0
    4.3978   44.7966   54.0722 H   0  0  0  0  0  0  0  0  0  0  0  0
    1.9721   46.3824   51.0284 H   0  0  0  0  0  0  0  0  0  0  0  0
    3.6627   46.8975   50.7071 H   0  0  0  0  0  0  0  0  0  0  0  0
    3.2403   45.1515   50.7071 H   0  0  0  0  0  0  0  0  0  0  0  0
    3.8132   47.4860   54.2514 H   0  0  0  0  0  0  0  0  0  0  0  0
    4.8133   47.6529   52.7687 H   0  0  0  0  0  0  0  0  0  0  0  0
    3.1066   48.2133   52.7687 H   0  0  0  0  0  0  0  0  0  0  0  0
    1.6660   46.4350   54.0100 H   0  0  0  0  0  0  0  0  0  0  0  0
    0.1771   45.8308   55.6666 H   0  0  0  0  0  0  0  0  0  0  0  0
   -3.5190   42.7111   56.9919 H   0  0  0  0  0  0  0  0  0  0  0  0
   -4.6336   44.1982   58.9477 H   0  0  0  0  0  0  0  0  0  0  0  0
   -3.3196   46.3675   60.3055 H   0  0  0  0  0  0  0  0  0  0  0  0
   -2.6712   47.5594   59.1284 H   0  0  0  0  0  0  0  0  0  0  0  0
   -4.4221   47.1584   59.1284 H   0  0  0  0  0  0  0  0  0  0  0  0
    6.3484   45.7943   54.7989 H   0  0  0  0  0  0  0  0  0  0  0  0
    8.6787   46.5431   54.3306 H   0  0  0  0  0  0  0  0  0  0  0  0
  1  2  1  0
  2  3  2  0
  3  4  1  0
  4  5  2  0
  5  6  1  0
  6  7  1  0
  7  8  1  0
  7  9  1  0
  7 10  1  0
 10 11  1  0
 11 12  2  0
 11 13  1  0
 13 14  1  0
 14 15  2  0
 15 16  1  0
 16 17  1  0
 17 18  2  0
 18 19  1  0
 19 20  1  0
 19 21  1  0
 15 22  1  0
 22 23  1  0
  5 24  1  0
 24 25  2  0
 25  2  1  0
 23 13  2  0
 21 16  2  0
  1 26  1  0
  1 27  1  0
  1 28  1  0
  3 29  1  0
  4 30  1  0
  6 31  1  0
  6 32  1  0
  8 33  1  0
  8 34  1  0
  8 35  1  0
  9 36  1  0
  9 37  1  0
  9 38  1  0
 10 39  1  0
 14 40  1  0
 17 41  1  0
 18 42  1  0
 20 43  1  0
 20 44  1  0
 20 45  1  0
 24 46  1  0
 25 47  1  0
M  END
>  <meeko>  (5) 
{"is_sidechain": [false], "free_energy": -8.013, "intermolecular_energy": -10.128, "internal_energy": 0.02}

$$$$
