ligand_58_conformer_1_docked
     RDKit          3D

 45 48  0  0  0  0  0  0  0  0999 V2000
    3.2000   46.7770   50.5500 O   0  0  0  0  0  0  0  0  0  0  0  0
    3.8280   45.8230   51.0860 C   0  0  0  0  0  0  0  0  0  0  0  0
    5.2900   45.9420   51.2700 C   0  0  0  0  0  0  0  0  0  0  0  0
    6.1810   45.2270   50.4320 C   0  0  0  0  0  0  0  0  0  0  0  0
    7.5700   45.3440   50.5990 C   0  0  0  0  0  0  0  0  0  0  0  0
    8.0420   46.1860   51.6000 C   0  0  0  0  0  0  0  0  0  0  0  0
    9.6270   46.5250   52.0280 S   0  0  0  0  0  0  0  0  0  0  0  0
    9.1520   47.5880   53.2580 C   0  0  0  0  0  0  0  0  0  0  0  0
    7.8020   47.6890   53.3440 N   0  0  0  0  0  0  0  0  0  0  0  0
    7.1900   46.9060   52.4180 C   0  0  0  0  0  0  0  0  0  0  0  0
    5.8070   46.8010   52.2650 C   0  0  0  0  0  0  0  0  0  0  0  0
    3.1050   44.6570   51.5300 N   0  0  0  0  0  0  0  0  0  0  0  0
    3.4810   43.9770   52.7780 C   0  0  0  0  0  0  0  0  0  0  0  0
    2.2500   43.3710   53.4760 C   0  0  0  0  0  0  0  0  0  0  0  0
    0.9750   44.2560   53.3080 C   0  0  0  0  0  0  0  0  0  0  0  0
   -0.2370   43.5820   54.0470 C   0  0  0  0  0  0  0  0  0  0  0  0
   -0.5950   44.2030   55.4140 C   0  0  0  0  0  0  0  0  0  0  0  0
    0.6480   44.6350   56.1960 C   0  0  0  0  0  0  0  0  0  0  0  0
    0.2470   45.1690   57.4310 O   0  0  0  0  0  0  0  0  0  0  0  0
    1.4830   45.6770   55.4130 C   0  0  0  0  0  0  0  0  0  0  0  0
    1.2030   45.6830   53.8970 C   0  0  0  0  0  0  0  0  0  0  0  0
    0.6500   44.3760   51.7770 C   0  0  0  0  0  0  0  0  0  0  0  0
    1.8750   44.2440   50.8480 C   0  0  0  0  0  0  0  0  0  0  0  0
    5.7805   44.5738   49.6428 H   0  0  0  0  0  0  0  0  0  0  0  0
    8.2657   44.7851   49.9558 H   0  0  0  0  0  0  0  0  0  0  0  0
    9.8535   48.1309   53.9085 H   0  0  0  0  0  0  0  0  0  0  0  0
    5.1290   47.3790   52.9101 H   0  0  0  0  0  0  0  0  0  0  0  0
    4.1945   43.1723   52.5470 H   0  0  0  0  0  0  0  0  0  0  0  0
    3.9350   44.7166   53.4539 H   0  0  0  0  0  0  0  0  0  0  0  0
    2.0512   42.3793   53.0435 H   0  0  0  0  0  0  0  0  0  0  0  0
    2.4729   43.3045   54.5511 H   0  0  0  0  0  0  0  0  0  0  0  0
   -1.1198   43.6595   53.3954 H   0  0  0  0  0  0  0  0  0  0  0  0
    0.0659   42.5443   54.2507 H   0  0  0  0  0  0  0  0  0  0  0  0
   -1.2323   45.0839   55.2470 H   0  0  0  0  0  0  0  0  0  0  0  0
   -1.1175   43.4374   56.0063 H   0  0  0  0  0  0  0  0  0  0  0  0
    1.2863   43.7530   56.3527 H   0  0  0  0  0  0  0  0  0  0  0  0
    1.0610   45.5530   57.8530 H   0  0  0  0  0  0  0  0  0  0  0  0
    1.2544   46.6761   55.8123 H   0  0  0  0  0  0  0  0  0  0  0  0
    2.5408   45.4048   55.5434 H   0  0  0  0  0  0  0  0  0  0  0  0
    0.3023   46.2862   53.7103 H   0  0  0  0  0  0  0  0  0  0  0  0
    2.0914   46.1026   53.4023 H   0  0  0  0  0  0  0  0  0  0  0  0
   -0.0662   43.5832   51.5151 H   0  0  0  0  0  0  0  0  0  0  0  0
    0.2488   45.3884   51.6219 H   0  0  0  0  0  0  0  0  0  0  0  0
    1.9746   43.1949   50.5326 H   0  0  0  0  0  0  0  0  0  0  0  0
    1.7234   44.8984   49.9769 H   0  0  0  0  0  0  0  0  0  0  0  0
  1  2  2  0
  2  3  1  0
  3  4  2  0
  4  5  1  0
  5  6  2  0
  6  7  1  0
  7  8  1  0
  8  9  2  0
  9 10  1  0
 10 11  2  0
  2 12  1  0
 12 13  1  0
 13 14  1  0
 14 15  1  0
 15 16  1  0
 16 17  1  0
 17 18  1  0
 18 19  1  0
 18 20  1  0
 20 21  1  0
 15 22  1  0
 22 23  1  0
 11  3  1  0
 23 12  1  0
 10  6  1  0
 21 15  1  0
  4 24  1  0
  5 25  1  0
  8 26  1  0
 11 27  1  0
 13 28  1  0
 13 29  1  0
 14 30  1  0
 14 31  1  0
 16 32  1  0
 16 33  1  0
 17 34  1  0
 17 35  1  0
 18 36  1  0
 19 37  1  0
 20 38  1  0
 20 39  1  0
 21 40  1  0
 21 41  1  0
 22 42  1  0
 22 43  1  0
 23 44  1  0
 23 45  1  0
M  END
>  <meeko>  (1) 
{"is_sidechain": [false], "free_energy": -8.74, "intermolecular_energy": -9.507, "internal_energy": -0.331}

$$$$
ligand_58_conformer_1_docked
     RDKit          3D

 45 48  0  0  0  0  0  0  0  0999 V2000
    3.9970   42.9430   52.6500 O   0  0  0  0  0  0  0  0  0  0  0  0
    3.5450   44.1200   52.6830 C   0  0  0  0  0  0  0  0  0  0  0  0
    2.3240   44.3970   53.4710 C   0  0  0  0  0  0  0  0  0  0  0  0
    1.0430   44.1080   52.9390 C   0  0  0  0  0  0  0  0  0  0  0  0
   -0.1170   44.3630   53.6880 C   0  0  0  0  0  0  0  0  0  0  0  0
    0.0300   44.8950   54.9640 C   0  0  0  0  0  0  0  0  0  0  0  0
   -1.1560   45.2960   56.0790 S   0  0  0  0  0  0  0  0  0  0  0  0
   -0.0190   45.8110   57.2230 C   0  0  0  0  0  0  0  0  0  0  0  0
    1.2510   45.6790   56.7670 N   0  0  0  0  0  0  0  0  0  0  0  0
    1.2720   45.1680   55.5090 C   0  0  0  0  0  0  0  0  0  0  0  0
    2.4340   44.9200   54.7780 C   0  0  0  0  0  0  0  0  0  0  0  0
    4.2390   45.1670   51.9760 N   0  0  0  0  0  0  0  0  0  0  0  0
    4.3480   46.5130   52.5590 C   0  0  0  0  0  0  0  0  0  0  0  0
    5.6750   47.1870   52.1630 C   0  0  0  0  0  0  0  0  0  0  0  0
    6.8550   46.1700   52.0770 C   0  0  0  0  0  0  0  0  0  0  0  0
    8.1750   46.9240   51.6760 C   0  0  0  0  0  0  0  0  0  0  0  0
    9.1510   47.1950   52.8400 C   0  0  0  0  0  0  0  0  0  0  0  0
    8.4200   47.5480   54.1370 C   0  0  0  0  0  0  0  0  0  0  0  0
    9.3670   47.8010   55.1420 O   0  0  0  0  0  0  0  0  0  0  0  0
    7.4650   46.4130   54.5820 C   0  0  0  0  0  0  0  0  0  0  0  0
    7.0750   45.4490   53.4440 C   0  0  0  0  0  0  0  0  0  0  0  0
    6.5130   45.1000   50.9810 C   0  0  0  0  0  0  0  0  0  0  0  0
    5.0040   44.8620   50.7640 C   0  0  0  0  0  0  0  0  0  0  0  0
    0.9564   43.6798   51.9295 H   0  0  0  0  0  0  0  0  0  0  0  0
   -1.1142   44.1478   53.2766 H   0  0  0  0  0  0  0  0  0  0  0  0
   -0.2793   46.2052   58.2164 H   0  0  0  0  0  0  0  0  0  0  0  0
    3.4222   45.1290   55.2137 H   0  0  0  0  0  0  0  0  0  0  0  0
    3.5112   47.1290   52.1980 H   0  0  0  0  0  0  0  0  0  0  0  0
    4.3181   46.4209   53.6547 H   0  0  0  0  0  0  0  0  0  0  0  0
    5.5489   47.6659   51.1808 H   0  0  0  0  0  0  0  0  0  0  0  0
    5.9228   47.9238   52.9413 H   0  0  0  0  0  0  0  0  0  0  0  0
    8.7004   46.3160   50.9248 H   0  0  0  0  0  0  0  0  0  0  0  0
    7.8637   47.9098   51.3003 H   0  0  0  0  0  0  0  0  0  0  0  0
    9.7587   46.2940   53.0098 H   0  0  0  0  0  0  0  0  0  0  0  0
    9.7785   48.0544   52.5614 H   0  0  0  0  0  0  0  0  0  0  0  0
    7.8073   48.4441   53.9591 H   0  0  0  0  0  0  0  0  0  0  0  0
    9.8210   46.9370   55.3310 H   0  0  0  0  0  0  0  0  0  0  0  0
    7.9608   45.8326   55.3741 H   0  0  0  0  0  0  0  0  0  0  0  0
    6.5376   46.8913   54.9299 H   0  0  0  0  0  0  0  0  0  0  0  0
    7.8784   44.7074   53.3230 H   0  0  0  0  0  0  0  0  0  0  0  0
    6.1200   44.9808   53.7245 H   0  0  0  0  0  0  0  0  0  0  0  0
    6.9481   45.4343   50.0276 H   0  0  0  0  0  0  0  0  0  0  0  0
    6.9311   44.1463   51.3354 H   0  0  0  0  0  0  0  0  0  0  0  0
    4.6529   45.5084   49.9461 H   0  0  0  0  0  0  0  0  0  0  0  0
    4.8514   43.8018   50.5138 H   0  0  0  0  0  0  0  0  0  0  0  0
  1  2  2  0
  2  3  1  0
  3  4  2  0
  4  5  1  0
  5  6  2  0
  6  7  1  0
  7  8  1  0
  8  9  2  0
  9 10  1  0
 10 11  2  0
  2 12  1  0
 12 13  1  0
 13 14  1  0
 14 15  1  0
 15 16  1  0
 16 17  1  0
 17 18  1  0
 18 19  1  0
 18 20  1  0
 20 21  1  0
 15 22  1  0
 22 23  1  0
 11  3  1  0
 23 12  1  0
 10  6  1  0
 21 15  1  0
  4 24  1  0
  5 25  1  0
  8 26  1  0
 11 27  1  0
 13 28  1  0
 13 29  1  0
 14 30  1  0
 14 31  1  0
 16 32  1  0
 16 33  1  0
 17 34  1  0
 17 35  1  0
 18 36  1  0
 19 37  1  0
 20 38  1  0
 20 39  1  0
 21 40  1  0
 21 41  1  0
 22 42  1  0
 22 43  1  0
 23 44  1  0
 23 45  1  0
M  END
>  <meeko>  (2) 
{"is_sidechain": [false], "free_energy": -8.341, "intermolecular_energy": -9.241, "internal_energy": -0.163}

$$$$
ligand_58_conformer_1_docked
     RDKit          3D

 45 48  0  0  0  0  0  0  0  0999 V2000
    3.4420   42.2400   53.0740 O   0  0  0  0  0  0  0  0  0  0  0  0
    2.8820   43.2520   52.5720 C   0  0  0  0  0  0  0  0  0  0  0  0
    1.5930   43.7100   53.1340 C   0  0  0  0  0  0  0  0  0  0  0  0
    1.5610   44.5180   54.2970 C   0  0  0  0  0  0  0  0  0  0  0  0
    0.3390   44.9600   54.8290 C   0  0  0  0  0  0  0  0  0  0  0  0
   -0.8320   44.5920   54.1760 C   0  0  0  0  0  0  0  0  0  0  0  0
   -2.4180   44.9680   54.5690 S   0  0  0  0  0  0  0  0  0  0  0  0
   -3.0330   44.1150   53.2420 C   0  0  0  0  0  0  0  0  0  0  0  0
   -2.0460   43.5490   52.5040 N   0  0  0  0  0  0  0  0  0  0  0  0
   -0.8230   43.8190   53.0290 C   0  0  0  0  0  0  0  0  0  0  0  0
    0.3830   43.3710   52.4880 C   0  0  0  0  0  0  0  0  0  0  0  0
    3.5200   43.9510   51.4840 N   0  0  0  0  0  0  0  0  0  0  0  0
    3.4660   45.4190   51.4080 C   0  0  0  0  0  0  0  0  0  0  0  0
    4.7470   45.9920   50.7750 C   0  0  0  0  0  0  0  0  0  0  0  0
    6.0200   45.1800   51.1700 C   0  0  0  0  0  0  0  0  0  0  0  0
    7.2870   45.8210   50.4960 C   0  0  0  0  0  0  0  0  0  0  0  0
    8.1570   46.6850   51.4330 C   0  0  0  0  0  0  0  0  0  0  0  0
    7.3150   47.4900   52.4260 C   0  0  0  0  0  0  0  0  0  0  0  0
    8.1690   48.2650   53.2270 O   0  0  0  0  0  0  0  0  0  0  0  0
    6.4420   46.5700   53.3140 C   0  0  0  0  0  0  0  0  0  0  0  0
    6.2170   45.1660   52.7180 C   0  0  0  0  0  0  0  0  0  0  0  0
    5.8490   43.7050   50.6590 C   0  0  0  0  0  0  0  0  0  0  0  0
    4.3850   43.2300   50.5470 C   0  0  0  0  0  0  0  0  0  0  0  0
    2.5032   44.8021   54.7885 H   0  0  0  0  0  0  0  0  0  0  0  0
    0.3090   45.5801   55.7371 H   0  0  0  0  0  0  0  0  0  0  0  0
   -4.1042   44.0301   53.0068 H   0  0  0  0  0  0  0  0  0  0  0  0
    0.3914   42.7626   51.5716 H   0  0  0  0  0  0  0  0  0  0  0  0
    2.6006   45.7149   50.7968 H   0  0  0  0  0  0  0  0  0  0  0  0
    3.3744   45.8172   52.4293 H   0  0  0  0  0  0  0  0  0  0  0  0
    4.6401   45.9711   49.6804 H   0  0  0  0  0  0  0  0  0  0  0  0
    4.8750   47.0190   51.1477 H   0  0  0  0  0  0  0  0  0  0  0  0
    7.9135   45.0066   50.1032 H   0  0  0  0  0  0  0  0  0  0  0  0
    6.9106   46.4979   49.7149 H   0  0  0  0  0  0  0  0  0  0  0  0
    8.8339   46.0255   51.9958 H   0  0  0  0  0  0  0  0  0  0  0  0
    8.7178   47.3978   50.8106 H   0  0  0  0  0  0  0  0  0  0  0  0
    6.6338   48.1411   51.8584 H   0  0  0  0  0  0  0  0  0  0  0  0
    7.7570   49.1670   53.2940 H   0  0  0  0  0  0  0  0  0  0  0  0
    6.9369   46.4578   54.2900 H   0  0  0  0  0  0  0  0  0  0  0  0
    5.4540   47.0463   53.3970 H   0  0  0  0  0  0  0  0  0  0  0  0
    7.0916   44.5419   52.9536 H   0  0  0  0  0  0  0  0  0  0  0  0
    5.2931   44.7666   53.1617 H   0  0  0  0  0  0  0  0  0  0  0  0
    6.3109   43.6310   49.6634 H   0  0  0  0  0  0  0  0  0  0  0  0
    6.3305   43.0580   51.4070 H   0  0  0  0  0  0  0  0  0  0  0  0
    4.0283   43.4061   49.5215 H   0  0  0  0  0  0  0  0  0  0  0  0
    4.3471   42.1585   50.7927 H   0  0  0  0  0  0  0  0  0  0  0  0
  1  2  2  0
  2  3  1  0
  3  4  2  0
  4  5  1  0
  5  6  2  0
  6  7  1  0
  7  8  1  0
  8  9  2  0
  9 10  1  0
 10 11  2  0
  2 12  1  0
 12 13  1  0
 13 14  1  0
 14 15  1  0
 15 16  1  0
 16 17  1  0
 17 18  1  0
 18 19  1  0
 18 20  1  0
 20 21  1  0
 15 22  1  0
 22 23  1  0
 11  3  1  0
 23 12  1  0
 10  6  1  0
 21 15  1  0
  4 24  1  0
  5 25  1  0
  8 26  1  0
 11 27  1  0
 13 28  1  0
 13 29  1  0
 14 30  1  0
 14 31  1  0
 16 32  1  0
 16 33  1  0
 17 34  1  0
 17 35  1  0
 18 36  1  0
 19 37  1  0
 20 38  1  0
 20 39  1  0
 21 40  1  0
 21 41  1  0
 22 42  1  0
 22 43  1  0
 23 44  1  0
 23 45  1  0
M  END
>  <meeko>  (3) 
{"is_sidechain": [false], "free_energy": -7.932, "intermolecular_energy": -8.67, "internal_energy": -0.289}

$$$$
ligand_58_conformer_1_docked
     RDKit          3D

 45 48  0  0  0  0  0  0  0  0999 V2000
    7.7910   42.3950   50.1580 O   0  0  0  0  0  0  0  0  0  0  0  0
    6.7310   42.9210   49.7230 C   0  0  0  0  0  0  0  0  0  0  0  0
    5.7530   42.0740   49.0060 C   0  0  0  0  0  0  0  0  0  0  0  0
    4.7900   41.3220   49.7230 C   0  0  0  0  0  0  0  0  0  0  0  0
    3.8560   40.5230   49.0450 C   0  0  0  0  0  0  0  0  0  0  0  0
    3.8980   40.5000   47.6560 C   0  0  0  0  0  0  0  0  0  0  0  0
    2.9220   39.6540   46.5880 S   0  0  0  0  0  0  0  0  0  0  0  0
    3.7280   40.2740   45.2340 C   0  0  0  0  0  0  0  0  0  0  0  0
    4.7300   41.1170   45.5850 N   0  0  0  0  0  0  0  0  0  0  0  0
    4.8190   41.2400   46.9350 C   0  0  0  0  0  0  0  0  0  0  0  0
    5.7540   42.0390   47.5940 C   0  0  0  0  0  0  0  0  0  0  0  0
    6.4850   44.3230   49.9540 N   0  0  0  0  0  0  0  0  0  0  0  0
    5.1290   44.8010   50.2640 C   0  0  0  0  0  0  0  0  0  0  0  0
    5.1680   46.0100   51.2170 C   0  0  0  0  0  0  0  0  0  0  0  0
    6.3230   45.9070   52.2620 C   0  0  0  0  0  0  0  0  0  0  0  0
    6.2990   47.1670   53.2010 C   0  0  0  0  0  0  0  0  0  0  0  0
    5.6860   46.9290   54.5970 C   0  0  0  0  0  0  0  0  0  0  0  0
    4.4900   45.9750   54.5480 C   0  0  0  0  0  0  0  0  0  0  0  0
    3.9740   45.8230   55.8450 O   0  0  0  0  0  0  0  0  0  0  0  0
    4.8830   44.5950   53.9680 C   0  0  0  0  0  0  0  0  0  0  0  0
    6.1780   44.6200   53.1310 C   0  0  0  0  0  0  0  0  0  0  0  0
    7.6890   45.8580   51.4910 C   0  0  0  0  0  0  0  0  0  0  0  0
    7.6050   45.2620   50.0700 C   0  0  0  0  0  0  0  0  0  0  0  0
    4.7740   41.3646   50.8221 H   0  0  0  0  0  0  0  0  0  0  0  0
    3.1114   39.9314   49.5978 H   0  0  0  0  0  0  0  0  0  0  0  0
    3.4696   40.0229   44.1947 H   0  0  0  0  0  0  0  0  0  0  0  0
    6.4817   42.6333   47.0219 H   0  0  0  0  0  0  0  0  0  0  0  0
    4.6307   45.0972   49.3291 H   0  0  0  0  0  0  0  0  0  0  0  0
    4.5774   43.9870   50.7571 H   0  0  0  0  0  0  0  0  0  0  0  0
    5.3103   46.9243   50.6221 H   0  0  0  0  0  0  0  0  0  0  0  0
    4.2170   46.0325   51.7694 H   0  0  0  0  0  0  0  0  0  0  0  0
    7.3350   47.5106   53.3374 H   0  0  0  0  0  0  0  0  0  0  0  0
    5.6547   47.9077   52.7048 H   0  0  0  0  0  0  0  0  0  0  0  0
    6.4563   46.4980   55.2534 H   0  0  0  0  0  0  0  0  0  0  0  0
    5.3304   47.8972   54.9793 H   0  0  0  0  0  0  0  0  0  0  0  0
    3.7264   46.4057   53.8837 H   0  0  0  0  0  0  0  0  0  0  0  0
    3.1900   46.4310   55.9140 H   0  0  0  0  0  0  0  0  0  0  0  0
    5.0235   43.8942   54.8041 H   0  0  0  0  0  0  0  0  0  0  0  0
    4.0705   44.2867   53.2937 H   0  0  0  0  0  0  0  0  0  0  0  0
    7.0375   44.5613   53.8149 H   0  0  0  0  0  0  0  0  0  0  0  0
    6.1387   43.7632   52.4423 H   0  0  0  0  0  0  0  0  0  0  0  0
    8.0739   46.8853   51.4098 H   0  0  0  0  0  0  0  0  0  0  0  0
    8.3487   45.1938   52.0686 H   0  0  0  0  0  0  0  0  0  0  0  0
    7.4651   46.0784   49.3462 H   0  0  0  0  0  0  0  0  0  0  0  0
    8.5386   44.7175   49.8650 H   0  0  0  0  0  0  0  0  0  0  0  0
  1  2  2  0
  2  3  1  0
  3  4  2  0
  4  5  1  0
  5  6  2  0
  6  7  1  0
  7  8  1  0
  8  9  2  0
  9 10  1  0
 10 11  2  0
  2 12  1  0
 12 13  1  0
 13 14  1  0
 14 15  1  0
 15 16  1  0
 16 17  1  0
 17 18  1  0
 18 19  1  0
 18 20  1  0
 20 21  1  0
 15 22  1  0
 22 23  1  0
 11  3  1  0
 23 12  1  0
 10  6  1  0
 21 15  1  0
  4 24  1  0
  5 25  1  0
  8 26  1  0
 11 27  1  0
 13 28  1  0
 13 29  1  0
 14 30  1  0
 14 31  1  0
 16 32  1  0
 16 33  1  0
 17 34  1  0
 17 35  1  0
 18 36  1  0
 19 37  1  0
 20 38  1  0
 20 39  1  0
 21 40  1  0
 21 41  1  0
 22 42  1  0
 22 43  1  0
 23 44  1  0
 23 45  1  0
M  END
>  <meeko>  (4) 
{"is_sidechain": [false], "free_energy": -7.761, "intermolecular_energy": -8.501, "internal_energy": -0.272}

$$$$
ligand_58_conformer_1_docked
     RDKit          3D

 45 48  0  0  0  0  0  0  0  0999 V2000
    1.3990   43.1080   54.3650 O   0  0  0  0  0  0  0  0  0  0  0  0
    1.1810   44.3400   54.2020 C   0  0  0  0  0  0  0  0  0  0  0  0
    0.5060   45.0960   55.2780 C   0  0  0  0  0  0  0  0  0  0  0  0
   -0.9060   45.2120   55.3010 C   0  0  0  0  0  0  0  0  0  0  0  0
   -1.5500   45.9230   56.3250 C   0  0  0  0  0  0  0  0  0  0  0  0
   -0.7650   46.4990   57.3180 C   0  0  0  0  0  0  0  0  0  0  0  0
   -1.2450   47.3930   58.6520 S   0  0  0  0  0  0  0  0  0  0  0  0
    0.3480   47.6000   59.1870 C   0  0  0  0  0  0  0  0  0  0  0  0
    1.2400   46.9960   58.3630 N   0  0  0  0  0  0  0  0  0  0  0  0
    0.6140   46.3840   57.3250 C   0  0  0  0  0  0  0  0  0  0  0  0
    1.2690   45.6810   56.3140 C   0  0  0  0  0  0  0  0  0  0  0  0
    1.6160   44.9840   52.9880 N   0  0  0  0  0  0  0  0  0  0  0  0
    2.1650   46.3480   53.0220 C   0  0  0  0  0  0  0  0  0  0  0  0
    3.2450   46.5420   51.9430 C   0  0  0  0  0  0  0  0  0  0  0  0
    4.1020   45.2570   51.7200 C   0  0  0  0  0  0  0  0  0  0  0  0
    5.1840   45.5270   50.6130 C   0  0  0  0  0  0  0  0  0  0  0  0
    6.6100   45.7830   51.1440 C   0  0  0  0  0  0  0  0  0  0  0  0
    6.6080   46.5940   52.4410 C   0  0  0  0  0  0  0  0  0  0  0  0
    7.9350   46.8050   52.8520 O   0  0  0  0  0  0  0  0  0  0  0  0
    5.8130   45.8790   53.5620 C   0  0  0  0  0  0  0  0  0  0  0  0
    4.8170   44.8250   53.0380 C   0  0  0  0  0  0  0  0  0  0  0  0
    3.1520   44.1000   51.2480 C   0  0  0  0  0  0  0  0  0  0  0  0
    1.6930   44.2270   51.7350 C   0  0  0  0  0  0  0  0  0  0  0  0
   -1.5037   44.7396   54.5076 H   0  0  0  0  0  0  0  0  0  0  0  0
   -2.6454   46.0220   56.3419 H   0  0  0  0  0  0  0  0  0  0  0  0
    0.6260   48.1573   60.0937 H   0  0  0  0  0  0  0  0  0  0  0  0
    2.3646   45.5832   56.3228 H   0  0  0  0  0  0  0  0  0  0  0  0
    1.3507   47.0667   52.8475 H   0  0  0  0  0  0  0  0  0  0  0  0
    2.6247   46.5133   54.0076 H   0  0  0  0  0  0  0  0  0  0  0  0
    2.7537   46.8076   50.9953 H   0  0  0  0  0  0  0  0  0  0  0  0
    3.9205   47.3400   52.2848 H   0  0  0  0  0  0  0  0  0  0  0  0
    5.2192   44.6506   49.9492 H   0  0  0  0  0  0  0  0  0  0  0  0
    4.8761   46.4505   50.1008 H   0  0  0  0  0  0  0  0  0  0  0  0
    7.0966   44.8147   51.3327 H   0  0  0  0  0  0  0  0  0  0  0  0
    7.1536   46.3636   50.3841 H   0  0  0  0  0  0  0  0  0  0  0  0
    6.1129   47.5572   52.2484 H   0  0  0  0  0  0  0  0  0  0  0  0
    8.5170   46.4380   52.1340 H   0  0  0  0  0  0  0  0  0  0  0  0
    6.5288   45.3786   54.2307 H   0  0  0  0  0  0  0  0  0  0  0  0
    5.2235   46.6495   54.0805 H   0  0  0  0  0  0  0  0  0  0  0  0
    5.3648   43.8901   52.8484 H   0  0  0  0  0  0  0  0  0  0  0  0
    4.0394   44.6997   53.8059 H   0  0  0  0  0  0  0  0  0  0  0  0
    3.1466   44.0878   50.1481 H   0  0  0  0  0  0  0  0  0  0  0  0
    3.5478   43.1728   51.6881 H   0  0  0  0  0  0  0  0  0  0  0  0
    1.1019   44.7455   50.9657 H   0  0  0  0  0  0  0  0  0  0  0  0
    1.2964   43.2167   51.9137 H   0  0  0  0  0  0  0  0  0  0  0  0
  1  2  2  0
  2  3  1  0
  3  4  2  0
  4  5  1  0
  5  6  2  0
  6  7  1  0
  7  8  1  0
  8  9  2  0
  9 10  1  0
 10 11  2  0
  2 12  1  0
 12 13  1  0
 13 14  1  0
 14 15  1  0
 15 16  1  0
 16 17  1  0
 17 18  1  0
 18 19  1  0
 18 20  1  0
 20 21  1  0
 15 22  1  0
 22 23  1  0
 11  3  1  0
 23 12  1  0
 10  6  1  0
 21 15  1  0
  4 24  1  0
  5 25  1  0
  8 26  1  0
 11 27  1  0
 13 28  1  0
 13 29  1  0
 14 30  1  0
 14 31  1  0
 16 32  1  0
 16 33  1  0
 17 34  1  0
 17 35  1  0
 18 36  1  0
 19 37  1  0
 20 38  1  0
 20 39  1  0
 21 40  1  0
 21 41  1  0
 22 42  1  0
 22 43  1  0
 23 44  1  0
 23 45  1  0
M  END
>  <meeko>  (5) 
{"is_sidechain": [false], "free_energy": -7.598, "intermolecular_energy": -8.341, "internal_energy": -0.255}

$$$$
