MODEL 1
REMARK VINA RESULT:    -8.188      0.000      0.000
REMARK INTER + INTRA:         -11.502
REMARK INTER:                 -10.581
REMARK INTRA:                  -0.920
REMARK UNBOUND:                -0.920
REMARK SMILES O=C(NC[C@H]1NCC[C@@H]1C1CC1)c1ccc(N2CCCS2(=O)=O)cc1Cl
REMARK SMILES IDX 1 1 2 2 3 3 13 5 14 6 25 7 15 8 24 9 16 10 26 11 17 12 18 13
REMARK SMILES IDX 21 14 19 15 20 16 22 17 23 18 4 19 5 20 6 21 9 22 7 23 8 24
REMARK SMILES IDX 10 26 11 27 12 28
REMARK H PARENT 3 4 6 25
ROOT
ATOM      1  O   UNL     1       4.277  48.073  54.211  1.00  0.00    -0.269 OA
ATOM      2  C   UNL     1       4.173  46.816  54.163  1.00  0.00     0.252 C 
ATOM      3  N   UNL     1       5.330  45.998  54.398  1.00  0.00    -0.350 N 
ATOM      4  H   UNL     1       5.242  44.956  54.383  1.00  0.00     0.163 HD
ENDROOT
BRANCH   2   5
ATOM      5  C   UNL     1       2.864  46.199  53.834  1.00  0.00     0.058 A 
ATOM      6  C   UNL     1       2.079  45.657  54.865  1.00  0.00     0.017 A 
ATOM      7  C   UNL     1       2.391  46.118  52.506  1.00  0.00     0.055 A 
ATOM      8  C   UNL     1       0.852  45.052  54.588  1.00  0.00     0.028 A 
ATOM      9  C   UNL     1       1.162  45.504  52.235  1.00  0.00     0.048 A 
ATOM     10  C   UNL     1       0.378  44.960  53.269  1.00  0.00     0.053 A 
ATOM     11  Cl  UNL     1       3.269  46.825  51.153  1.00  0.00    -0.083 Cl
BRANCH  10  12
ATOM     12  N   UNL     1      -0.892  44.330  52.981  1.00  0.00    -0.270 N 
ATOM     13  C   UNL     1      -2.194  44.933  53.263  1.00  0.00     0.136 C 
ATOM     14  S   UNL     1      -1.067  42.881  52.075  1.00  0.00     0.235 S 
ATOM     15  C   UNL     1      -3.299  43.892  52.970  1.00  0.00     0.041 C 
ATOM     16  C   UNL     1      -2.819  42.916  51.891  1.00  0.00     0.162 C 
ATOM     17  O   UNL     1      -0.368  42.969  50.745  1.00  0.00    -0.206 OA
ATOM     18  O   UNL     1      -0.616  41.681  52.861  1.00  0.00    -0.206 OA
ENDBRANCH  10  12
ENDBRANCH   2   5
BRANCH   3  19
ATOM     19  C   UNL     1       6.646  46.569  54.684  1.00  0.00     0.135 C 
BRANCH  19  20
ATOM     20  C   UNL     1       7.309  47.088  53.390  1.00  0.00     0.076 C 
ATOM     21  N   UNL     1       8.480  47.933  53.675  1.00  0.00    -0.312 NA
ATOM     22  C   UNL     1       7.762  45.925  52.478  1.00  0.00     0.012 C 
ATOM     23  C   UNL     1       9.497  47.563  52.696  1.00  0.00     0.081 C 
ATOM     24  C   UNL     1       9.266  46.110  52.343  1.00  0.00     0.021 C 
ATOM     25  H   UNL     1       8.869  47.705  54.622  1.00  0.00     0.123 HD
BRANCH  22  26
ATOM     26  C   UNL     1       7.083  46.014  51.095  1.00  0.00    -0.006 C 
ATOM     27  C   UNL     1       7.534  44.984  50.069  1.00  0.00     0.004 C 
ATOM     28  C   UNL     1       6.179  44.840  50.746  1.00  0.00     0.004 C 
ENDBRANCH  22  26
ENDBRANCH  19  20
ENDBRANCH   3  19
TORSDOF 5
ENDMDL
MODEL 2
REMARK VINA RESULT:    -7.959      1.963      2.102
REMARK INTER + INTRA:         -11.206
REMARK INTER:                 -10.314
REMARK INTRA:                  -0.892
REMARK UNBOUND:                -0.920
REMARK SMILES O=C(NC[C@H]1NCC[C@@H]1C1CC1)c1ccc(N2CCCS2(=O)=O)cc1Cl
REMARK SMILES IDX 1 1 2 2 3 3 13 5 14 6 25 7 15 8 24 9 16 10 26 11 17 12 18 13
REMARK SMILES IDX 21 14 19 15 20 16 22 17 23 18 4 19 5 20 6 21 9 22 7 23 8 24
REMARK SMILES IDX 10 26 11 27 12 28
REMARK H PARENT 3 4 6 25
ROOT
ATOM      1  O   UNL     1       5.294  44.256  54.432  1.00  0.00    -0.269 OA
ATOM      2  C   UNL     1       4.490  45.228  54.434  1.00  0.00     0.252 C 
ATOM      3  N   UNL     1       4.995  46.569  54.330  1.00  0.00    -0.350 N 
ATOM      4  H   UNL     1       4.330  47.375  54.307  1.00  0.00     0.163 HD
ENDROOT
BRANCH   2   5
ATOM      5  C   UNL     1       3.034  44.977  54.572  1.00  0.00     0.058 A 
ATOM      6  C   UNL     1       2.345  45.512  55.673  1.00  0.00     0.017 A 
ATOM      7  C   UNL     1       2.321  44.192  53.640  1.00  0.00     0.055 A 
ATOM      8  C   UNL     1       0.979  45.279  55.844  1.00  0.00     0.028 A 
ATOM      9  C   UNL     1       0.952  43.957  53.822  1.00  0.00     0.048 A 
ATOM     10  C   UNL     1       0.264  44.493  54.926  1.00  0.00     0.053 A 
ATOM     11  Cl  UNL     1       3.079  43.532  52.195  1.00  0.00    -0.083 Cl
BRANCH  10  12
ATOM     12  N   UNL     1      -1.151  44.248  55.106  1.00  0.00    -0.270 N 
ATOM     13  C   UNL     1      -1.826  44.223  56.403  1.00  0.00     0.136 C 
ATOM     14  S   UNL     1      -2.287  44.163  53.820  1.00  0.00     0.235 S 
ATOM     15  C   UNL     1      -3.288  43.770  56.196  1.00  0.00     0.041 C 
ATOM     16  C   UNL     1      -3.758  44.157  54.790  1.00  0.00     0.162 C 
ATOM     17  O   UNL     1      -2.213  45.377  52.932  1.00  0.00    -0.206 OA
ATOM     18  O   UNL     1      -2.136  42.891  53.033  1.00  0.00    -0.206 OA
ENDBRANCH  10  12
ENDBRANCH   2   5
BRANCH   3  19
ATOM     19  C   UNL     1       6.425  46.859  54.234  1.00  0.00     0.135 C 
BRANCH  19  20
ATOM     20  C   UNL     1       6.820  47.187  52.778  1.00  0.00     0.076 C 
ATOM     21  N   UNL     1       7.781  48.300  52.708  1.00  0.00    -0.312 NA
ATOM     22  C   UNL     1       7.445  45.963  52.070  1.00  0.00     0.012 C 
ATOM     23  C   UNL     1       8.757  47.931  51.688  1.00  0.00     0.081 C 
ATOM     24  C   UNL     1       8.842  46.420  51.681  1.00  0.00     0.021 C 
ATOM     25  H   UNL     1       8.301  48.387  53.614  1.00  0.00     0.123 HD
BRANCH  22  26
ATOM     26  C   UNL     1       6.634  45.582  50.813  1.00  0.00    -0.006 C 
ATOM     27  C   UNL     1       7.282  44.558  49.892  1.00  0.00     0.004 C 
ATOM     28  C   UNL     1       6.122  44.149  50.788  1.00  0.00     0.004 C 
ENDBRANCH  22  26
ENDBRANCH  19  20
ENDBRANCH   3  19
TORSDOF 5
ENDMDL
MODEL 3
REMARK VINA RESULT:    -7.724      1.499      2.411
REMARK INTER + INTRA:         -10.903
REMARK INTER:                 -10.150
REMARK INTRA:                  -0.753
REMARK UNBOUND:                -0.920
REMARK SMILES O=C(NC[C@H]1NCC[C@@H]1C1CC1)c1ccc(N2CCCS2(=O)=O)cc1Cl
REMARK SMILES IDX 1 1 2 2 3 3 13 5 14 6 25 7 15 8 24 9 16 10 26 11 17 12 18 13
REMARK SMILES IDX 21 14 19 15 20 16 22 17 23 18 4 19 5 20 6 21 9 22 7 23 8 24
REMARK SMILES IDX 10 26 11 27 12 28
REMARK H PARENT 3 4 6 25
ROOT
ATOM      1  O   UNL     1       3.914  47.125  53.927  1.00  0.00    -0.269 OA
ATOM      2  C   UNL     1       3.495  45.936  53.957  1.00  0.00     0.252 C 
ATOM      3  N   UNL     1       4.346  44.896  54.468  1.00  0.00    -0.350 N 
ATOM      4  H   UNL     1       3.993  43.913  54.516  1.00  0.00     0.163 HD
ENDROOT
BRANCH   2   5
ATOM      5  C   UNL     1       2.143  45.619  53.436  1.00  0.00     0.058 A 
ATOM      6  C   UNL     1       1.116  45.294  54.338  1.00  0.00     0.017 A 
ATOM      7  C   UNL     1       1.859  45.609  52.053  1.00  0.00     0.055 A 
ATOM      8  C   UNL     1      -0.163  44.972  53.881  1.00  0.00     0.028 A 
ATOM      9  C   UNL     1       0.575  45.280  51.601  1.00  0.00     0.048 A 
ATOM     10  C   UNL     1      -0.451  44.953  52.506  1.00  0.00     0.053 A 
ATOM     11  Cl  UNL     1       3.059  46.065  50.847  1.00  0.00    -0.083 Cl
BRANCH  10  12
ATOM     12  N   UNL     1      -1.776  44.615  52.032  1.00  0.00    -0.270 N 
ATOM     13  C   UNL     1      -2.485  45.342  50.980  1.00  0.00     0.136 C 
ATOM     14  S   UNL     1      -2.626  43.191  52.476  1.00  0.00     0.235 S 
ATOM     15  C   UNL     1      -3.924  44.788  50.874  1.00  0.00     0.041 C 
ATOM     16  C   UNL     1      -3.949  43.322  51.320  1.00  0.00     0.162 C 
ATOM     17  O   UNL     1      -1.802  41.954  52.236  1.00  0.00    -0.206 OA
ATOM     18  O   UNL     1      -3.120  43.261  53.894  1.00  0.00    -0.206 OA
ENDBRANCH  10  12
ENDBRANCH   2   5
BRANCH   3  19
ATOM     19  C   UNL     1       5.700  45.162  54.951  1.00  0.00     0.135 C 
BRANCH  19  20
ATOM     20  C   UNL     1       6.703  45.189  53.777  1.00  0.00     0.076 C 
ATOM     21  N   UNL     1       6.031  45.021  52.478  1.00  0.00    -0.312 NA
ATOM     22  C   UNL     1       7.500  46.513  53.742  1.00  0.00     0.012 C 
ATOM     23  C   UNL     1       6.679  45.955  51.562  1.00  0.00     0.081 C 
ATOM     24  C   UNL     1       7.165  47.124  52.390  1.00  0.00     0.021 C 
ATOM     25  H   UNL     1       5.026  45.309  52.550  1.00  0.00     0.123 HD
BRANCH  22  26
ATOM     26  C   UNL     1       9.016  46.246  53.851  1.00  0.00    -0.006 C 
ATOM     27  C   UNL     1       9.912  47.169  53.038  1.00  0.00     0.004 C 
ATOM     28  C   UNL     1       9.813  47.340  54.547  1.00  0.00     0.004 C 
ENDBRANCH  22  26
ENDBRANCH  19  20
ENDBRANCH   3  19
TORSDOF 5
ENDMDL
MODEL 4
REMARK VINA RESULT:    -7.713      2.367      3.053
REMARK INTER + INTRA:         -10.888
REMARK INTER:                 -10.227
REMARK INTRA:                  -0.661
REMARK UNBOUND:                -0.920
REMARK SMILES O=C(NC[C@H]1NCC[C@@H]1C1CC1)c1ccc(N2CCCS2(=O)=O)cc1Cl
REMARK SMILES IDX 1 1 2 2 3 3 13 5 14 6 25 7 15 8 24 9 16 10 26 11 17 12 18 13
REMARK SMILES IDX 21 14 19 15 20 16 22 17 23 18 4 19 5 20 6 21 9 22 7 23 8 24
REMARK SMILES IDX 10 26 11 27 12 28
REMARK H PARENT 3 4 6 25
ROOT
ATOM      1  O   UNL     1       4.768  43.960  53.049  1.00  0.00    -0.269 OA
ATOM      2  C   UNL     1       3.839  44.730  52.680  1.00  0.00     0.252 C 
ATOM      3  N   UNL     1       4.116  45.778  51.738  1.00  0.00    -0.350 N 
ATOM      4  H   UNL     1       3.344  46.402  51.412  1.00  0.00     0.163 HD
ENDROOT
BRANCH   2   5
ATOM      5  C   UNL     1       2.478  44.563  53.247  1.00  0.00     0.058 A 
ATOM      6  C   UNL     1       2.096  45.331  54.360  1.00  0.00     0.017 A 
ATOM      7  C   UNL     1       1.557  43.634  52.715  1.00  0.00     0.055 A 
ATOM      8  C   UNL     1       0.830  45.185  54.930  1.00  0.00     0.028 A 
ATOM      9  C   UNL     1       0.291  43.489  53.296  1.00  0.00     0.048 A 
ATOM     10  C   UNL     1      -0.089  44.258  54.412  1.00  0.00     0.053 A 
ATOM     11  Cl  UNL     1       1.915  42.673  51.284  1.00  0.00    -0.083 Cl
BRANCH  10  12
ATOM     12  N   UNL     1      -1.399  44.104  55.005  1.00  0.00    -0.270 N 
ATOM     13  C   UNL     1      -1.648  44.015  56.443  1.00  0.00     0.136 C 
ATOM     14  S   UNL     1      -2.874  44.219  54.132  1.00  0.00     0.235 S 
ATOM     15  C   UNL     1      -3.142  43.691  56.671  1.00  0.00     0.041 C 
ATOM     16  C   UNL     1      -3.975  44.236  55.507  1.00  0.00     0.162 C 
ATOM     17  O   UNL     1      -2.954  45.497  53.341  1.00  0.00    -0.206 OA
ATOM     18  O   UNL     1      -3.094  43.013  53.260  1.00  0.00    -0.206 OA
ENDBRANCH  10  12
ENDBRANCH   2   5
BRANCH   3  19
ATOM     19  C   UNL     1       5.453  46.000  51.189  1.00  0.00     0.135 C 
BRANCH  19  20
ATOM     20  C   UNL     1       6.296  46.877  52.140  1.00  0.00     0.076 C 
ATOM     21  N   UNL     1       5.549  47.241  53.356  1.00  0.00    -0.312 NA
ATOM     22  C   UNL     1       7.598  46.161  52.568  1.00  0.00     0.012 C 
ATOM     23  C   UNL     1       6.494  47.127  54.463  1.00  0.00     0.081 C 
ATOM     24  C   UNL     1       7.497  46.060  54.082  1.00  0.00     0.021 C 
ATOM     25  H   UNL     1       4.784  46.545  53.532  1.00  0.00     0.123 HD
BRANCH  22  26
ATOM     26  C   UNL     1       8.837  46.988  52.165  1.00  0.00    -0.006 C 
ATOM     27  C   UNL     1       9.956  47.049  53.195  1.00  0.00     0.004 C 
ATOM     28  C   UNL     1      10.109  46.178  51.957  1.00  0.00     0.004 C 
ENDBRANCH  22  26
ENDBRANCH  19  20
ENDBRANCH   3  19
TORSDOF 5
ENDMDL
MODEL 5
REMARK VINA RESULT:    -7.687      6.035      7.684
REMARK INTER + INTRA:         -10.854
REMARK INTER:                 -10.379
REMARK INTRA:                  -0.476
REMARK UNBOUND:                -0.920
REMARK SMILES O=C(NC[C@H]1NCC[C@@H]1C1CC1)c1ccc(N2CCCS2(=O)=O)cc1Cl
REMARK SMILES IDX 1 1 2 2 3 3 13 5 14 6 25 7 15 8 24 9 16 10 26 11 17 12 18 13
REMARK SMILES IDX 21 14 19 15 20 16 22 17 23 18 4 19 5 20 6 21 9 22 7 23 8 24
REMARK SMILES IDX 10 26 11 27 12 28
REMARK H PARENT 3 4 6 25
ROOT
ATOM      1  O   UNL     1       6.665  41.186  49.839  1.00  0.00    -0.269 OA
ATOM      2  C   UNL     1       6.138  42.012  49.044  1.00  0.00     0.252 C 
ATOM      3  N   UNL     1       6.301  43.421  49.273  1.00  0.00    -0.350 N 
ATOM      4  H   UNL     1       5.886  44.108  48.603  1.00  0.00     0.163 HD
ENDROOT
BRANCH   2   5
ATOM      5  C   UNL     1       5.330  41.519  47.901  1.00  0.00     0.058 A 
ATOM      6  C   UNL     1       5.761  41.781  46.590  1.00  0.00     0.017 A 
ATOM      7  C   UNL     1       4.123  40.812  48.091  1.00  0.00     0.055 A 
ATOM      8  C   UNL     1       5.015  41.350  45.492  1.00  0.00     0.028 A 
ATOM      9  C   UNL     1       3.377  40.387  46.984  1.00  0.00     0.048 A 
ATOM     10  C   UNL     1       3.809  40.652  45.672  1.00  0.00     0.053 A 
ATOM     11  Cl  UNL     1       3.533  40.377  49.691  1.00  0.00    -0.083 Cl
BRANCH  10  12
ATOM     12  N   UNL     1       3.034  40.208  44.534  1.00  0.00    -0.270 N 
ATOM     13  C   UNL     1       3.526  39.288  43.509  1.00  0.00     0.136 C 
ATOM     14  S   UNL     1       1.357  40.518  44.327  1.00  0.00     0.235 S 
ATOM     15  C   UNL     1       2.474  39.188  42.382  1.00  0.00     0.041 C 
ATOM     16  C   UNL     1       1.077  39.455  42.951  1.00  0.00     0.162 C 
ATOM     17  O   UNL     1       0.560  40.090  45.530  1.00  0.00    -0.206 OA
ATOM     18  O   UNL     1       1.101  41.958  43.977  1.00  0.00    -0.206 OA
ENDBRANCH  10  12
ENDBRANCH   2   5
BRANCH   3  19
ATOM     19  C   UNL     1       7.054  43.946  50.411  1.00  0.00     0.135 C 
BRANCH  19  20
ATOM     20  C   UNL     1       6.670  45.415  50.689  1.00  0.00     0.076 C 
ATOM     21  N   UNL     1       5.211  45.601  50.742  1.00  0.00    -0.312 NA
ATOM     22  C   UNL     1       7.270  45.916  52.023  1.00  0.00     0.012 C 
ATOM     23  C   UNL     1       4.957  46.515  51.851  1.00  0.00     0.081 C 
ATOM     24  C   UNL     1       6.064  46.305  52.862  1.00  0.00     0.021 C 
ATOM     25  H   UNL     1       4.739  44.694  50.978  1.00  0.00     0.123 HD
BRANCH  22  26
ATOM     26  C   UNL     1       8.181  47.140  51.791  1.00  0.00    -0.006 C 
ATOM     27  C   UNL     1       8.884  47.686  53.025  1.00  0.00     0.004 C 
ATOM     28  C   UNL     1       9.668  46.884  51.997  1.00  0.00     0.004 C 
ENDBRANCH  22  26
ENDBRANCH  19  20
ENDBRANCH   3  19
TORSDOF 5
ENDMDL
