MODEL 1
REMARK VINA RESULT:    -9.068      0.000      0.000
REMARK INTER + INTRA:         -13.090
REMARK INTER:                 -12.248
REMARK INTRA:                  -0.842
REMARK UNBOUND:                -0.842
REMARK SMILES O=C(NCC1CCOCC1)c1cnc(Nc2ccccc2)nc1C(F)(F)F
REMARK SMILES IDX 11 1 12 2 13 3 14 4 22 5 23 6 2 7 1 8 3 9 4 11 5 12 6 13
REMARK SMILES IDX 10 14 7 15 9 16 8 17 24 18 25 19 26 20 27 21 15 22 16 24
REMARK SMILES IDX 17 25 21 26 18 27 20 28 19 29
REMARK H PARENT 3 10 15 23
ROOT
ATOM      1  C   UNL     1       5.788  44.469  51.103  1.00  0.00     0.089 A 
ATOM      2  C   UNL     1       6.761  44.351  50.099  1.00  0.00     0.131 A 
ATOM      3  N   UNL     1       6.771  43.274  49.276  1.00  0.00    -0.220 NA
ATOM      4  C   UNL     1       5.858  42.279  49.407  1.00  0.00     0.227 A 
ATOM      5  N   UNL     1       4.902  42.371  50.367  1.00  0.00    -0.207 NA
ATOM      6  C   UNL     1       4.840  43.423  51.228  1.00  0.00     0.162 A 
ENDROOT
BRANCH   1   7
ATOM      7  C   UNL     1       5.790  45.677  51.963  1.00  0.00     0.255 C 
ATOM      8  O   UNL     1       4.922  46.576  51.791  1.00  0.00    -0.269 OA
ATOM      9  N   UNL     1       6.794  45.840  52.977  1.00  0.00    -0.352 N 
ATOM     10  H   UNL     1       7.391  45.023  53.239  1.00  0.00     0.163 HD
BRANCH   9  11
ATOM     11  C   UNL     1       6.961  47.084  53.727  1.00  0.00     0.120 C 
BRANCH  11  12
ATOM     12  C   UNL     1       8.091  47.950  53.121  1.00  0.00     0.013 C 
ATOM     13  C   UNL     1       9.163  48.274  54.178  1.00  0.00     0.034 C 
ATOM     14  C   UNL     1       8.745  47.280  51.887  1.00  0.00     0.034 C 
ATOM     15  C   UNL     1      10.034  47.040  54.516  1.00  0.00     0.160 C 
ATOM     16  C   UNL     1      10.012  46.488  52.259  1.00  0.00     0.160 C 
ATOM     17  O   UNL     1       9.918  45.984  53.575  1.00  0.00    -0.381 OA
ENDBRANCH  11  12
ENDBRANCH   9  11
ENDBRANCH   1   7
BRANCH   6  18
ATOM     18  C   UNL     1       3.758  43.418  52.278  1.00  0.00     0.434 C 
ATOM     19  F   UNL     1       4.276  43.776  53.508  1.00  0.00    -0.164 F 
ATOM     20  F   UNL     1       3.208  42.152  52.393  1.00  0.00    -0.164 F 
ATOM     21  F   UNL     1       2.754  44.299  51.920  1.00  0.00    -0.164 F 
ENDBRANCH   6  18
BRANCH   4  22
ATOM     22  N   UNL     1       5.855  41.159  48.511  1.00  0.00    -0.324 N 
ATOM     23  H   UNL     1       6.369  40.300  48.812  1.00  0.00     0.170 HD
BRANCH  22  24
ATOM     24  C   UNL     1       5.107  41.105  47.285  1.00  0.00     0.041 A 
ATOM     25  C   UNL     1       3.894  40.396  47.197  1.00  0.00     0.026 A 
ATOM     26  C   UNL     1       5.560  41.826  46.169  1.00  0.00     0.026 A 
ATOM     27  C   UNL     1       3.171  40.382  45.999  1.00  0.00     0.002 A 
ATOM     28  C   UNL     1       4.835  41.807  44.973  1.00  0.00     0.002 A 
ATOM     29  C   UNL     1       3.645  41.082  44.887  1.00  0.00     0.000 A 
ENDBRANCH  22  24
ENDBRANCH   4  22
TORSDOF 6
ENDMDL
MODEL 2
REMARK VINA RESULT:    -8.627      3.410      7.431
REMARK INTER + INTRA:         -12.494
REMARK INTER:                 -12.068
REMARK INTRA:                  -0.427
REMARK UNBOUND:                -0.842
REMARK SMILES O=C(NCC1CCOCC1)c1cnc(Nc2ccccc2)nc1C(F)(F)F
REMARK SMILES IDX 11 1 12 2 13 3 14 4 22 5 23 6 2 7 1 8 3 9 4 11 5 12 6 13
REMARK SMILES IDX 10 14 7 15 9 16 8 17 24 18 25 19 26 20 27 21 15 22 16 24
REMARK SMILES IDX 17 25 21 26 18 27 20 28 19 29
REMARK H PARENT 3 10 15 23
ROOT
ATOM      1  C   UNL     1       3.733  43.739  51.145  1.00  0.00     0.089 A 
ATOM      2  C   UNL     1       3.791  45.123  51.366  1.00  0.00     0.131 A 
ATOM      3  N   UNL     1       4.942  45.805  51.147  1.00  0.00    -0.220 NA
ATOM      4  C   UNL     1       6.066  45.173  50.725  1.00  0.00     0.227 A 
ATOM      5  N   UNL     1       6.036  43.836  50.499  1.00  0.00    -0.207 NA
ATOM      6  C   UNL     1       4.914  43.092  50.704  1.00  0.00     0.162 A 
ENDROOT
BRANCH   1   7
ATOM      7  C   UNL     1       2.448  43.032  51.365  1.00  0.00     0.255 C 
ATOM      8  O   UNL     1       1.742  42.684  50.380  1.00  0.00    -0.269 OA
ATOM      9  N   UNL     1       1.992  42.763  52.700  1.00  0.00    -0.352 N 
ATOM     10  H   UNL     1       2.655  42.884  53.499  1.00  0.00     0.163 HD
BRANCH   9  11
ATOM     11  C   UNL     1       0.656  42.241  52.986  1.00  0.00     0.120 C 
BRANCH  11  12
ATOM     12  C   UNL     1      -0.051  43.086  54.072  1.00  0.00     0.013 C 
ATOM     13  C   UNL     1       0.815  44.292  54.480  1.00  0.00     0.034 C 
ATOM     14  C   UNL     1      -1.453  43.566  53.621  1.00  0.00     0.034 C 
ATOM     15  C   UNL     1       0.843  45.383  53.382  1.00  0.00     0.160 C 
ATOM     16  C   UNL     1      -1.417  44.983  53.019  1.00  0.00     0.160 C 
ATOM     17  O   UNL     1      -0.172  45.233  52.402  1.00  0.00    -0.381 OA
ENDBRANCH  11  12
ENDBRANCH   9  11
ENDBRANCH   1   7
BRANCH   6  18
ATOM     18  C   UNL     1       4.991  41.607  50.451  1.00  0.00     0.434 C 
ATOM     19  F   UNL     1       4.423  40.908  51.500  1.00  0.00    -0.164 F 
ATOM     20  F   UNL     1       6.312  41.209  50.333  1.00  0.00    -0.164 F 
ATOM     21  F   UNL     1       4.335  41.299  49.274  1.00  0.00    -0.164 F 
ENDBRANCH   6  18
BRANCH   4  22
ATOM     22  N   UNL     1       7.270  45.908  50.464  1.00  0.00    -0.324 N 
ATOM     23  H   UNL     1       7.449  46.205  49.477  1.00  0.00     0.170 HD
BRANCH  22  24
ATOM     24  C   UNL     1       8.182  46.354  51.480  1.00  0.00     0.041 A 
ATOM     25  C   UNL     1       7.747  47.142  52.563  1.00  0.00     0.026 A 
ATOM     26  C   UNL     1       9.524  45.945  51.429  1.00  0.00     0.026 A 
ATOM     27  C   UNL     1       8.651  47.540  53.553  1.00  0.00     0.002 A 
ATOM     28  C   UNL     1      10.425  46.348  52.421  1.00  0.00     0.002 A 
ATOM     29  C   UNL     1       9.989  47.149  53.479  1.00  0.00     0.000 A 
ENDBRANCH  22  24
ENDBRANCH   4  22
TORSDOF 6
ENDMDL
MODEL 3
REMARK VINA RESULT:    -8.341      3.971      7.803
REMARK INTER + INTRA:         -12.108
REMARK INTER:                 -11.509
REMARK INTRA:                  -0.599
REMARK UNBOUND:                -0.842
REMARK SMILES O=C(NCC1CCOCC1)c1cnc(Nc2ccccc2)nc1C(F)(F)F
REMARK SMILES IDX 11 1 12 2 13 3 14 4 22 5 23 6 2 7 1 8 3 9 4 11 5 12 6 13
REMARK SMILES IDX 10 14 7 15 9 16 8 17 24 18 25 19 26 20 27 21 15 22 16 24
REMARK SMILES IDX 17 25 21 26 18 27 20 28 19 29
REMARK H PARENT 3 10 15 23
ROOT
ATOM      1  C   UNL     1       3.237  44.218  52.109  1.00  0.00     0.089 A 
ATOM      2  C   UNL     1       4.206  43.348  51.587  1.00  0.00     0.131 A 
ATOM      3  N   UNL     1       5.404  43.824  51.170  1.00  0.00    -0.220 NA
ATOM      4  C   UNL     1       5.695  45.149  51.230  1.00  0.00     0.227 A 
ATOM      5  N   UNL     1       4.778  46.012  51.736  1.00  0.00    -0.207 NA
ATOM      6  C   UNL     1       3.555  45.598  52.167  1.00  0.00     0.162 A 
ENDROOT
BRANCH   1   7
ATOM      7  C   UNL     1       1.950  43.656  52.584  1.00  0.00     0.255 C 
ATOM      8  O   UNL     1       1.105  43.224  51.755  1.00  0.00    -0.269 OA
ATOM      9  N   UNL     1       1.651  43.625  53.989  1.00  0.00    -0.352 N 
ATOM     10  H   UNL     1       2.416  43.809  54.676  1.00  0.00     0.163 HD
BRANCH   9  11
ATOM     11  C   UNL     1       0.333  43.258  54.506  1.00  0.00     0.120 C 
BRANCH  11  12
ATOM     12  C   UNL     1      -0.623  44.474  54.503  1.00  0.00     0.013 C 
ATOM     13  C   UNL     1      -2.049  44.053  54.898  1.00  0.00     0.034 C 
ATOM     14  C   UNL     1      -0.126  45.611  55.432  1.00  0.00     0.034 C 
ATOM     15  C   UNL     1      -2.162  43.730  56.408  1.00  0.00     0.160 C 
ATOM     16  C   UNL     1      -0.765  45.539  56.831  1.00  0.00     0.160 C 
ATOM     17  O   UNL     1      -1.066  44.203  57.175  1.00  0.00    -0.381 OA
ENDBRANCH  11  12
ENDBRANCH   9  11
ENDBRANCH   1   7
BRANCH   6  18
ATOM     18  C   UNL     1       2.596  46.640  52.686  1.00  0.00     0.434 C 
ATOM     19  F   UNL     1       2.957  47.896  52.233  1.00  0.00    -0.164 F 
ATOM     20  F   UNL     1       2.612  46.659  54.071  1.00  0.00    -0.164 F 
ATOM     21  F   UNL     1       1.312  46.344  52.268  1.00  0.00    -0.164 F 
ENDBRANCH   6  18
BRANCH   4  22
ATOM     22  N   UNL     1       6.978  45.640  50.818  1.00  0.00    -0.324 N 
ATOM     23  H   UNL     1       7.177  45.666  49.792  1.00  0.00     0.170 HD
BRANCH  22  24
ATOM     24  C   UNL     1       7.957  46.197  51.711  1.00  0.00     0.041 A 
ATOM     25  C   UNL     1       7.577  46.913  52.862  1.00  0.00     0.026 A 
ATOM     26  C   UNL     1       9.320  45.970  51.467  1.00  0.00     0.026 A 
ATOM     27  C   UNL     1       8.549  47.422  53.729  1.00  0.00     0.002 A 
ATOM     28  C   UNL     1      10.290  46.482  52.335  1.00  0.00     0.002 A 
ATOM     29  C   UNL     1       9.904  47.212  53.462  1.00  0.00     0.000 A 
ENDBRANCH  22  24
ENDBRANCH   4  22
TORSDOF 6
ENDMDL
MODEL 4
REMARK VINA RESULT:    -8.302      3.827      7.984
REMARK INTER + INTRA:         -12.055
REMARK INTER:                 -11.446
REMARK INTRA:                  -0.609
REMARK UNBOUND:                -0.842
REMARK SMILES O=C(NCC1CCOCC1)c1cnc(Nc2ccccc2)nc1C(F)(F)F
REMARK SMILES IDX 11 1 12 2 13 3 14 4 22 5 23 6 2 7 1 8 3 9 4 11 5 12 6 13
REMARK SMILES IDX 10 14 7 15 9 16 8 17 24 18 25 19 26 20 27 21 15 22 16 24
REMARK SMILES IDX 17 25 21 26 18 27 20 28 19 29
REMARK H PARENT 3 10 15 23
ROOT
ATOM      1  C   UNL     1       3.100  44.645  51.824  1.00  0.00     0.089 A 
ATOM      2  C   UNL     1       3.420  46.009  51.879  1.00  0.00     0.131 A 
ATOM      3  N   UNL     1       4.666  46.436  51.557  1.00  0.00    -0.220 NA
ATOM      4  C   UNL     1       5.636  45.562  51.189  1.00  0.00     0.227 A 
ATOM      5  N   UNL     1       5.352  44.237  51.122  1.00  0.00    -0.207 NA
ATOM      6  C   UNL     1       4.123  43.743  51.437  1.00  0.00     0.162 A 
ENDROOT
BRANCH   1   7
ATOM      7  C   UNL     1       1.718  44.219  52.153  1.00  0.00     0.255 C 
ATOM      8  O   UNL     1       0.809  44.301  51.283  1.00  0.00    -0.269 OA
ATOM      9  N   UNL     1       1.405  43.738  53.469  1.00  0.00    -0.352 N 
ATOM     10  H   UNL     1       2.184  43.499  54.123  1.00  0.00     0.163 HD
BRANCH   9  11
ATOM     11  C   UNL     1       0.034  43.481  53.908  1.00  0.00     0.120 C 
BRANCH  11  12
ATOM     12  C   UNL     1      -0.606  44.757  54.507  1.00  0.00     0.013 C 
ATOM     13  C   UNL     1      -2.039  44.951  53.981  1.00  0.00     0.034 C 
ATOM     14  C   UNL     1      -0.603  44.742  56.056  1.00  0.00     0.034 C 
ATOM     15  C   UNL     1      -3.028  43.936  54.605  1.00  0.00     0.160 C 
ATOM     16  C   UNL     1      -1.929  44.214  56.634  1.00  0.00     0.160 C 
ATOM     17  O   UNL     1      -2.521  43.279  55.756  1.00  0.00    -0.381 OA
ENDBRANCH  11  12
ENDBRANCH   9  11
ENDBRANCH   1   7
BRANCH   6  18
ATOM     18  C   UNL     1       3.916  42.252  51.358  1.00  0.00     0.434 C 
ATOM     19  F   UNL     1       2.821  41.958  50.566  1.00  0.00    -0.164 F 
ATOM     20  F   UNL     1       3.686  41.732  52.621  1.00  0.00    -0.164 F 
ATOM     21  F   UNL     1       5.045  41.649  50.836  1.00  0.00    -0.164 F 
ENDBRANCH   6  18
BRANCH   4  22
ATOM     22  N   UNL     1       6.942  46.025  50.818  1.00  0.00    -0.324 N 
ATOM     23  H   UNL     1       7.142  46.136  49.798  1.00  0.00     0.170 HD
BRANCH  22  24
ATOM     24  C   UNL     1       7.946  46.449  51.754  1.00  0.00     0.041 A 
ATOM     25  C   UNL     1       7.612  47.185  52.907  1.00  0.00     0.026 A 
ATOM     26  C   UNL     1       9.283  46.069  51.550  1.00  0.00     0.026 A 
ATOM     27  C   UNL     1       8.606  47.562  53.816  1.00  0.00     0.002 A 
ATOM     28  C   UNL     1      10.274  46.450  52.461  1.00  0.00     0.002 A 
ATOM     29  C   UNL     1       9.936  47.200  53.590  1.00  0.00     0.000 A 
ENDBRANCH  22  24
ENDBRANCH   4  22
TORSDOF 6
ENDMDL
MODEL 5
REMARK VINA RESULT:    -8.045      4.817      8.233
REMARK INTER + INTRA:         -11.708
REMARK INTER:                 -10.752
REMARK INTRA:                  -0.956
REMARK UNBOUND:                -0.842
REMARK SMILES O=C(NCC1CCOCC1)c1cnc(Nc2ccccc2)nc1C(F)(F)F
REMARK SMILES IDX 11 1 12 2 13 3 14 4 22 5 23 6 2 7 1 8 3 9 4 11 5 12 6 13
REMARK SMILES IDX 10 14 7 15 9 16 8 17 24 18 25 19 26 20 27 21 15 22 16 24
REMARK SMILES IDX 17 25 21 26 18 27 20 28 19 29
REMARK H PARENT 3 10 15 23
ROOT
ATOM      1  C   UNL     1       3.175  45.146  54.320  1.00  0.00     0.089 A 
ATOM      2  C   UNL     1       4.083  44.917  55.365  1.00  0.00     0.131 A 
ATOM      3  N   UNL     1       5.268  45.575  55.402  1.00  0.00    -0.220 NA
ATOM      4  C   UNL     1       5.613  46.459  54.432  1.00  0.00     0.227 A 
ATOM      5  N   UNL     1       4.751  46.704  53.413  1.00  0.00    -0.207 NA
ATOM      6  C   UNL     1       3.549  46.071  53.314  1.00  0.00     0.162 A 
ENDROOT
BRANCH   1   7
ATOM      7  C   UNL     1       1.877  44.431  54.330  1.00  0.00     0.255 C 
ATOM      8  O   UNL     1       0.936  44.840  55.063  1.00  0.00    -0.269 OA
ATOM      9  N   UNL     1       1.694  43.255  53.526  1.00  0.00    -0.352 N 
ATOM     10  H   UNL     1       2.400  43.027  52.790  1.00  0.00     0.163 HD
BRANCH   9  11
ATOM     11  C   UNL     1       0.510  42.403  53.632  1.00  0.00     0.120 C 
BRANCH  11  12
ATOM     12  C   UNL     1      -0.210  42.280  52.269  1.00  0.00     0.013 C 
ATOM     13  C   UNL     1      -1.736  42.373  52.442  1.00  0.00     0.034 C 
ATOM     14  C   UNL     1       0.277  43.341  51.251  1.00  0.00     0.034 C 
ATOM     15  C   UNL     1      -2.195  43.816  52.766  1.00  0.00     0.160 C 
ATOM     16  C   UNL     1      -0.627  44.588  51.234  1.00  0.00     0.160 C 
ATOM     17  O   UNL     1      -1.208  44.801  52.503  1.00  0.00    -0.381 OA
ENDBRANCH  11  12
ENDBRANCH   9  11
ENDBRANCH   1   7
BRANCH   6  18
ATOM     18  C   UNL     1       2.674  46.392  52.128  1.00  0.00     0.434 C 
ATOM     19  F   UNL     1       2.693  45.351  51.218  1.00  0.00    -0.164 F 
ATOM     20  F   UNL     1       3.132  47.532  51.489  1.00  0.00    -0.164 F 
ATOM     21  F   UNL     1       1.378  46.620  52.551  1.00  0.00    -0.164 F 
ENDBRANCH   6  18
BRANCH   4  22
ATOM     22  N   UNL     1       6.854  47.176  54.497  1.00  0.00    -0.324 N 
ATOM     23  H   UNL     1       6.964  47.879  55.263  1.00  0.00     0.170 HD
BRANCH  22  24
ATOM     24  C   UNL     1       7.985  46.914  53.650  1.00  0.00     0.041 A 
ATOM     25  C   UNL     1       7.823  46.521  52.308  1.00  0.00     0.026 A 
ATOM     26  C   UNL     1       9.281  47.115  54.152  1.00  0.00     0.026 A 
ATOM     27  C   UNL     1       8.942  46.298  51.499  1.00  0.00     0.002 A 
ATOM     28  C   UNL     1      10.397  46.888  53.339  1.00  0.00     0.002 A 
ATOM     29  C   UNL     1      10.227  46.476  52.015  1.00  0.00     0.000 A 
ENDBRANCH  22  24
ENDBRANCH   4  22
TORSDOF 6
ENDMDL
