MODEL 1
REMARK VINA RESULT:    -8.862      0.000      0.000
REMARK INTER + INTRA:         -11.920
REMARK INTER:                 -11.194
REMARK INTRA:                  -0.726
REMARK UNBOUND:                -0.726
REMARK SMILES Cc1c[nH]c2ncc(C(=O)N[C@H]3[C@@H]4CN(C(=O)c5ccc6nc(N)n(C)c6c5)C[C@@H]43)cc12
REMARK SMILES IDX 12 1 13 2 14 3 15 4 29 5 30 6 11 7 9 8 10 9 8 11 2 12 3 13
REMARK SMILES IDX 32 14 4 15 31 16 5 17 6 18 7 19 1 20 16 22 17 23 18 24 19 25
REMARK SMILES IDX 28 26 20 27 27 28 21 29 25 30 22 31 23 32 26 33 24 34
REMARK H PARENT 11 10 4 21 24 35 24 36
ROOT
ATOM      1  C   UNL     1       2.443  44.378  53.772  1.00  0.00     0.093 C 
ATOM      2  C   UNL     1       1.446  44.663  52.656  1.00  0.00     0.038 C 
ATOM      3  C   UNL     1       0.043  45.047  53.102  1.00  0.00     0.126 C 
ATOM      4  N   UNL     1      -0.492  43.892  53.810  1.00  0.00    -0.338 N 
ATOM      5  C   UNL     1       0.431  42.767  53.835  1.00  0.00     0.126 C 
ATOM      6  C   UNL     1       1.687  43.231  53.113  1.00  0.00     0.038 C 
ENDROOT
BRANCH   1   7
ATOM      7  N   UNL     1       3.837  44.457  53.346  1.00  0.00    -0.349 N 
ATOM      8  C   UNL     1       4.560  45.696  53.403  1.00  0.00     0.253 C 
ATOM      9  O   UNL     1       4.044  46.688  53.987  1.00  0.00    -0.269 OA
ATOM     10  H   UNL     1       4.295  43.593  52.980  1.00  0.00     0.164 HD
BRANCH   8  11
ATOM     11  C   UNL     1       5.911  45.830  52.806  1.00  0.00     0.058 A 
ATOM     12  C   UNL     1       9.484  46.797  53.384  1.00  0.00    -0.024 A 
ATOM     13  C   UNL     1      10.339  46.672  52.291  1.00  0.00     0.088 A 
ATOM     14  C   UNL     1       8.243  46.395  52.935  1.00  0.00     0.022 A 
ATOM     15  N   UNL     1       9.665  46.196  51.216  1.00  0.00    -0.346 N 
ATOM     16  C   UNL     1       7.006  46.306  53.566  1.00  0.00     0.027 A 
ATOM     17  C   UNL     1       8.397  46.035  51.629  1.00  0.00     0.137 A 
ATOM     18  N   UNL     1       7.368  45.565  50.883  1.00  0.00    -0.238 NA
ATOM     19  C   UNL     1       6.130  45.452  51.451  1.00  0.00     0.127 A 
ATOM     20  C   UNL     1       9.831  47.319  54.740  1.00  0.00     0.047 C 
ATOM     21  H   UNL     1      10.052  45.997  50.267  1.00  0.00     0.167 HD
ENDBRANCH   8  11
ENDBRANCH   1   7
BRANCH   4  22
ATOM     22  C   UNL     1      -1.872  43.808  54.212  1.00  0.00     0.253 C 
ATOM     23  O   UNL     1      -2.726  43.344  53.408  1.00  0.00    -0.269 OA
BRANCH  22  24
ATOM     24  C   UNL     1      -2.315  44.232  55.554  1.00  0.00     0.042 A 
ATOM     25  C   UNL     1      -2.814  43.269  56.468  1.00  0.00     0.016 A 
ATOM     26  C   UNL     1      -2.296  45.598  55.915  1.00  0.00     0.042 A 
ATOM     27  C   UNL     1      -3.259  43.654  57.745  1.00  0.00     0.031 A 
ATOM     28  C   UNL     1      -2.739  45.942  57.194  1.00  0.00     0.070 A 
ATOM     29  C   UNL     1      -3.203  45.005  58.073  1.00  0.00     0.091 A 
ATOM     30  N   UNL     1      -2.821  47.155  57.769  1.00  0.00    -0.314 N 
ATOM     31  N   UNL     1      -3.609  45.584  59.217  1.00  0.00    -0.213 NA
ATOM     32  C   UNL     1      -3.364  46.900  58.989  1.00  0.00     0.200 A 
ATOM     33  C   UNL     1      -2.497  48.459  57.191  1.00  0.00     0.153 C 
BRANCH  32  34
ATOM     34  N   UNL     1      -3.686  47.913  59.944  1.00  0.00    -0.369 N 
ATOM     35  H   UNL     1      -2.998  48.654  60.201  1.00  0.00     0.159 HD
ATOM     36  H   UNL     1      -4.634  47.937  60.379  1.00  0.00     0.159 HD
ENDBRANCH  32  34
ENDBRANCH  22  24
ENDBRANCH   4  22
TORSDOF 5
ENDMDL
MODEL 2
REMARK VINA RESULT:    -8.600      2.148     10.199
REMARK INTER + INTRA:         -11.589
REMARK INTER:                 -10.804
REMARK INTRA:                  -0.785
REMARK UNBOUND:                -0.726
REMARK SMILES Cc1c[nH]c2ncc(C(=O)N[C@H]3[C@@H]4CN(C(=O)c5ccc6nc(N)n(C)c6c5)C[C@@H]43)cc12
REMARK SMILES IDX 12 1 13 2 14 3 15 4 29 5 30 6 11 7 9 8 10 9 8 11 2 12 3 13
REMARK SMILES IDX 32 14 4 15 31 16 5 17 6 18 7 19 1 20 16 22 17 23 18 24 19 25
REMARK SMILES IDX 28 26 20 27 27 28 21 29 25 30 22 31 23 32 26 33 24 34
REMARK H PARENT 11 10 4 21 24 35 24 36
ROOT
ATOM      1  C   UNL     1       0.920  44.788  53.906  1.00  0.00     0.093 C 
ATOM      2  C   UNL     1       0.897  43.276  53.723  1.00  0.00     0.038 C 
ATOM      3  C   UNL     1       2.195  42.646  53.240  1.00  0.00     0.126 C 
ATOM      4  N   UNL     1       2.445  43.189  51.913  1.00  0.00    -0.338 N 
ATOM      5  C   UNL     1       1.399  44.099  51.468  1.00  0.00     0.126 C 
ATOM      6  C   UNL     1       0.396  44.183  52.608  1.00  0.00     0.038 C 
ENDROOT
BRANCH   1   7
ATOM      7  N   UNL     1      -0.145  45.290  54.767  1.00  0.00    -0.349 N 
ATOM      8  C   UNL     1       0.126  45.706  56.114  1.00  0.00     0.253 C 
ATOM      9  O   UNL     1       1.321  45.803  56.504  1.00  0.00    -0.269 OA
ATOM     10  H   UNL     1      -1.117  45.324  54.388  1.00  0.00     0.164 HD
BRANCH   8  11
ATOM     11  C   UNL     1      -0.972  46.043  57.054  1.00  0.00     0.058 A 
ATOM     12  C   UNL     1      -2.229  48.458  59.628  1.00  0.00    -0.024 A 
ATOM     13  C   UNL     1      -3.472  48.168  60.187  1.00  0.00     0.088 A 
ATOM     14  C   UNL     1      -1.979  47.443  58.727  1.00  0.00     0.022 A 
ATOM     15  N   UNL     1      -3.980  47.035  59.647  1.00  0.00    -0.346 N 
ATOM     16  C   UNL     1      -0.905  47.191  57.879  1.00  0.00     0.027 A 
ATOM     17  C   UNL     1      -3.060  46.612  58.764  1.00  0.00     0.137 A 
ATOM     18  N   UNL     1      -3.153  45.514  57.977  1.00  0.00    -0.238 NA
ATOM     19  C   UNL     1      -2.130  45.219  57.120  1.00  0.00     0.127 A 
ATOM     20  C   UNL     1      -1.330  49.599  59.979  1.00  0.00     0.047 C 
ATOM     21  H   UNL     1      -4.895  46.586  59.870  1.00  0.00     0.167 HD
ENDBRANCH   8  11
ENDBRANCH   1   7
BRANCH   4  22
ATOM     22  C   UNL     1       3.484  42.679  51.056  1.00  0.00     0.253 C 
ATOM     23  O   UNL     1       3.311  41.586  50.452  1.00  0.00    -0.269 OA
BRANCH  22  24
ATOM     24  C   UNL     1       4.746  43.415  50.847  1.00  0.00     0.042 A 
ATOM     25  C   UNL     1       5.709  42.916  49.933  1.00  0.00     0.016 A 
ATOM     26  C   UNL     1       5.025  44.583  51.592  1.00  0.00     0.042 A 
ATOM     27  C   UNL     1       6.926  43.591  49.732  1.00  0.00     0.031 A 
ATOM     28  C   UNL     1       6.240  45.231  51.361  1.00  0.00     0.070 A 
ATOM     29  C   UNL     1       7.155  44.751  50.467  1.00  0.00     0.091 A 
ATOM     30  N   UNL     1       6.736  46.342  51.934  1.00  0.00    -0.314 N 
ATOM     31  N   UNL     1       8.258  45.521  50.453  1.00  0.00    -0.213 NA
ATOM     32  C   UNL     1       7.964  46.480  51.368  1.00  0.00     0.200 A 
ATOM     33  C   UNL     1       6.141  47.162  52.990  1.00  0.00     0.153 C 
BRANCH  32  34
ATOM     34  N   UNL     1       8.888  47.512  51.715  1.00  0.00    -0.369 N 
ATOM     35  H   UNL     1       9.585  47.383  52.481  1.00  0.00     0.159 HD
ATOM     36  H   UNL     1       8.893  48.409  51.180  1.00  0.00     0.159 HD
ENDBRANCH  32  34
ENDBRANCH  22  24
ENDBRANCH   4  22
TORSDOF 5
ENDMDL
MODEL 3
REMARK VINA RESULT:    -8.443      6.658      9.817
REMARK INTER + INTRA:         -11.390
REMARK INTER:                 -10.931
REMARK INTRA:                  -0.459
REMARK UNBOUND:                -0.726
REMARK SMILES Cc1c[nH]c2ncc(C(=O)N[C@H]3[C@@H]4CN(C(=O)c5ccc6nc(N)n(C)c6c5)C[C@@H]43)cc12
REMARK SMILES IDX 12 1 13 2 14 3 15 4 29 5 30 6 11 7 9 8 10 9 8 11 2 12 3 13
REMARK SMILES IDX 32 14 4 15 31 16 5 17 6 18 7 19 1 20 16 22 17 23 18 24 19 25
REMARK SMILES IDX 28 26 20 27 27 28 21 29 25 30 22 31 23 32 26 33 24 34
REMARK H PARENT 11 10 4 21 24 35 24 36
ROOT
ATOM      1  C   UNL     1       4.615  41.456  48.386  1.00  0.00     0.093 C 
ATOM      2  C   UNL     1       4.895  41.161  49.854  1.00  0.00     0.038 C 
ATOM      3  C   UNL     1       4.658  42.311  50.820  1.00  0.00     0.126 C 
ATOM      4  N   UNL     1       5.601  43.357  50.452  1.00  0.00    -0.338 N 
ATOM      5  C   UNL     1       6.465  42.975  49.344  1.00  0.00     0.126 C 
ATOM      6  C   UNL     1       6.032  41.576  48.931  1.00  0.00     0.038 C 
ENDROOT
BRANCH   1   7
ATOM      7  N   UNL     1       4.418  40.260  47.575  1.00  0.00    -0.349 N 
ATOM      8  C   UNL     1       3.218  40.072  46.810  1.00  0.00     0.253 C 
ATOM      9  O   UNL     1       2.399  41.024  46.698  1.00  0.00    -0.269 OA
ATOM     10  H   UNL     1       5.166  39.531  47.575  1.00  0.00     0.164 HD
BRANCH   8  11
ATOM     11  C   UNL     1       2.929  38.785  46.130  1.00  0.00     0.058 A 
ATOM     12  C   UNL     1       1.034  35.556  46.263  1.00  0.00    -0.024 A 
ATOM     13  C   UNL     1       1.223  34.688  45.189  1.00  0.00     0.088 A 
ATOM     14  C   UNL     1       1.825  36.656  45.998  1.00  0.00     0.022 A 
ATOM     15  N   UNL     1       2.079  35.229  44.289  1.00  0.00    -0.346 N 
ATOM     16  C   UNL     1       2.050  37.834  46.701  1.00  0.00     0.027 A 
ATOM     17  C   UNL     1       2.430  36.422  44.798  1.00  0.00     0.137 A 
ATOM     18  N   UNL     1       3.267  37.320  44.225  1.00  0.00    -0.238 NA
ATOM     19  C   UNL     1       3.522  38.499  44.869  1.00  0.00     0.127 A 
ATOM     20  C   UNL     1       0.197  35.314  47.476  1.00  0.00     0.047 C 
ATOM     21  H   UNL     1       2.396  34.808  43.389  1.00  0.00     0.167 HD
ENDBRANCH   8  11
ENDBRANCH   1   7
BRANCH   4  22
ATOM     22  C   UNL     1       5.807  44.528  51.264  1.00  0.00     0.253 C 
ATOM     23  O   UNL     1       6.712  45.349  50.953  1.00  0.00    -0.269 OA
BRANCH  22  24
ATOM     24  C   UNL     1       4.971  44.807  52.447  1.00  0.00     0.042 A 
ATOM     25  C   UNL     1       5.566  44.861  53.734  1.00  0.00     0.016 A 
ATOM     26  C   UNL     1       3.573  44.967  52.313  1.00  0.00     0.042 A 
ATOM     27  C   UNL     1       4.784  45.107  54.877  1.00  0.00     0.031 A 
ATOM     28  C   UNL     1       2.830  45.217  53.469  1.00  0.00     0.070 A 
ATOM     29  C   UNL     1       3.414  45.282  54.702  1.00  0.00     0.091 A 
ATOM     30  N   UNL     1       1.505  45.401  53.607  1.00  0.00    -0.314 N 
ATOM     31  N   UNL     1       2.491  45.490  55.658  1.00  0.00    -0.213 NA
ATOM     32  C   UNL     1       1.335  45.551  54.947  1.00  0.00     0.200 A 
ATOM     33  C   UNL     1       0.470  45.355  52.575  1.00  0.00     0.153 C 
BRANCH  32  34
ATOM     34  N   UNL     1       0.063  45.725  55.573  1.00  0.00    -0.369 N 
ATOM     35  H   UNL     1      -0.621  44.939  55.641  1.00  0.00     0.159 HD
ATOM     36  H   UNL     1      -0.187  46.644  55.998  1.00  0.00     0.159 HD
ENDBRANCH  32  34
ENDBRANCH  22  24
ENDBRANCH   4  22
TORSDOF 5
ENDMDL
MODEL 4
REMARK VINA RESULT:    -8.366      6.857      9.605
REMARK INTER + INTRA:         -11.292
REMARK INTER:                 -10.821
REMARK INTRA:                  -0.471
REMARK UNBOUND:                -0.726
REMARK SMILES Cc1c[nH]c2ncc(C(=O)N[C@H]3[C@@H]4CN(C(=O)c5ccc6nc(N)n(C)c6c5)C[C@@H]43)cc12
REMARK SMILES IDX 12 1 13 2 14 3 15 4 29 5 30 6 11 7 9 8 10 9 8 11 2 12 3 13
REMARK SMILES IDX 32 14 4 15 31 16 5 17 6 18 7 19 1 20 16 22 17 23 18 24 19 25
REMARK SMILES IDX 28 26 20 27 27 28 21 29 25 30 22 31 23 32 26 33 24 34
REMARK H PARENT 11 10 4 21 24 35 24 36
ROOT
ATOM      1  C   UNL     1       5.785  42.387  47.976  1.00  0.00     0.093 C 
ATOM      2  C   UNL     1       5.869  41.925  49.425  1.00  0.00     0.038 C 
ATOM      3  C   UNL     1       5.440  42.942  50.472  1.00  0.00     0.126 C 
ATOM      4  N   UNL     1       6.373  44.054  50.369  1.00  0.00    -0.338 N 
ATOM      5  C   UNL     1       7.403  43.837  49.363  1.00  0.00     0.126 C 
ATOM      6  C   UNL     1       7.103  42.486  48.733  1.00  0.00     0.038 C 
ENDROOT
BRANCH   1   7
ATOM      7  N   UNL     1       5.765  41.291  47.012  1.00  0.00    -0.349 N 
ATOM      8  C   UNL     1       5.374  41.511  45.649  1.00  0.00     0.253 C 
ATOM      9  O   UNL     1       5.210  42.690  45.233  1.00  0.00    -0.269 OA
ATOM     10  H   UNL     1       6.027  40.335  47.341  1.00  0.00     0.164 HD
BRANCH   8  11
ATOM     11  C   UNL     1       5.175  40.379  44.711  1.00  0.00     0.058 A 
ATOM     12  C   UNL     1       6.790  38.058  42.253  1.00  0.00    -0.024 A 
ATOM     13  C   UNL     1       5.954  37.115  41.657  1.00  0.00     0.088 A 
ATOM     14  C   UNL     1       5.983  38.789  43.101  1.00  0.00     0.022 A 
ATOM     15  N   UNL     1       4.689  37.242  42.126  1.00  0.00    -0.346 N 
ATOM     16  C   UNL     1       6.249  39.857  43.952  1.00  0.00     0.027 A 
ATOM     17  C   UNL     1       4.730  38.262  42.999  1.00  0.00     0.137 A 
ATOM     18  N   UNL     1       3.687  38.736  43.723  1.00  0.00    -0.238 NA
ATOM     19  C   UNL     1       3.890  39.781  44.580  1.00  0.00     0.127 A 
ATOM     20  C   UNL     1       8.243  38.268  41.980  1.00  0.00     0.047 C 
ATOM     21  H   UNL     1       3.859  36.667  41.863  1.00  0.00     0.167 HD
ENDBRANCH   8  11
ENDBRANCH   1   7
BRANCH   4  22
ATOM     22  C   UNL     1       6.404  45.124  51.332  1.00  0.00     0.253 C 
ATOM     23  O   UNL     1       7.244  46.056  51.199  1.00  0.00    -0.269 OA
BRANCH  22  24
ATOM     24  C   UNL     1       5.461  45.174  52.465  1.00  0.00     0.042 A 
ATOM     25  C   UNL     1       5.937  44.984  53.788  1.00  0.00     0.016 A 
ATOM     26  C   UNL     1       4.078  45.355  52.237  1.00  0.00     0.042 A 
ATOM     27  C   UNL     1       5.052  45.008  54.880  1.00  0.00     0.031 A 
ATOM     28  C   UNL     1       3.230  45.381  53.347  1.00  0.00     0.070 A 
ATOM     29  C   UNL     1       3.701  45.212  54.618  1.00  0.00     0.091 A 
ATOM     30  N   UNL     1       1.895  45.535  53.396  1.00  0.00    -0.314 N 
ATOM     31  N   UNL     1       2.693  45.235  55.508  1.00  0.00    -0.213 NA
ATOM     32  C   UNL     1       1.604  45.428  54.720  1.00  0.00     0.200 A 
ATOM     33  C   UNL     1       0.957  45.685  52.284  1.00  0.00     0.153 C 
BRANCH  32  34
ATOM     34  N   UNL     1       0.278  45.480  55.249  1.00  0.00    -0.369 N 
ATOM     35  H   UNL     1       0.002  46.198  55.954  1.00  0.00     0.159 HD
ATOM     36  H   UNL     1      -0.445  44.807  54.910  1.00  0.00     0.159 HD
ENDBRANCH  32  34
ENDBRANCH  22  24
ENDBRANCH   4  22
TORSDOF 5
ENDMDL
MODEL 5
REMARK VINA RESULT:    -8.309      4.259      6.610
REMARK INTER + INTRA:         -11.221
REMARK INTER:                 -10.769
REMARK INTRA:                  -0.452
REMARK UNBOUND:                -0.726
REMARK SMILES Cc1c[nH]c2ncc(C(=O)N[C@H]3[C@@H]4CN(C(=O)c5ccc6nc(N)n(C)c6c5)C[C@@H]43)cc12
REMARK SMILES IDX 12 1 13 2 14 3 15 4 29 5 30 6 11 7 9 8 10 9 8 11 2 12 3 13
REMARK SMILES IDX 32 14 4 15 31 16 5 17 6 18 7 19 1 20 16 22 17 23 18 24 19 25
REMARK SMILES IDX 28 26 20 27 27 28 21 29 25 30 22 31 23 32 26 33 24 34
REMARK H PARENT 11 10 4 21 24 35 24 36
ROOT
ATOM      1  C   UNL     1       2.284  44.881  52.518  1.00  0.00     0.093 C 
ATOM      2  C   UNL     1       1.547  43.894  53.413  1.00  0.00     0.038 C 
ATOM      3  C   UNL     1       0.638  42.902  52.702  1.00  0.00     0.126 C 
ATOM      4  N   UNL     1      -0.404  43.690  52.060  1.00  0.00    -0.338 N 
ATOM      5  C   UNL     1      -0.276  45.117  52.320  1.00  0.00     0.126 C 
ATOM      6  C   UNL     1       0.970  45.282  53.177  1.00  0.00     0.038 C 
ENDROOT
BRANCH   1   7
ATOM      7  N   UNL     1       3.446  45.492  53.153  1.00  0.00    -0.349 N 
ATOM      8  C   UNL     1       4.614  45.832  52.391  1.00  0.00     0.253 C 
ATOM      9  O   UNL     1       4.575  45.762  51.132  1.00  0.00    -0.269 OA
ATOM     10  H   UNL     1       3.418  45.663  54.183  1.00  0.00     0.164 HD
BRANCH   8  11
ATOM     11  C   UNL     1       5.864  46.282  53.051  1.00  0.00     0.058 A 
ATOM     12  C   UNL     1       9.592  46.551  52.798  1.00  0.00    -0.024 A 
ATOM     13  C   UNL     1      10.240  47.148  53.878  1.00  0.00     0.088 A 
ATOM     14  C   UNL     1       8.249  46.560  53.117  1.00  0.00     0.022 A 
ATOM     15  N   UNL     1       9.341  47.526  54.818  1.00  0.00    -0.346 N 
ATOM     16  C   UNL     1       7.126  46.103  52.436  1.00  0.00     0.027 A 
ATOM     17  C   UNL     1       8.141  47.161  54.336  1.00  0.00     0.137 A 
ATOM     18  N   UNL     1       6.944  47.355  54.941  1.00  0.00    -0.238 NA
ATOM     19  C   UNL     1       5.805  46.930  54.317  1.00  0.00     0.127 A 
ATOM     20  C   UNL     1      10.230  45.969  51.579  1.00  0.00     0.047 C 
ATOM     21  H   UNL     1       9.540  48.002  55.726  1.00  0.00     0.167 HD
ENDBRANCH   8  11
ENDBRANCH   1   7
BRANCH   4  22
ATOM     22  C   UNL     1      -1.560  43.086  51.451  1.00  0.00     0.253 C 
ATOM     23  O   UNL     1      -2.063  42.049  51.963  1.00  0.00    -0.269 OA
BRANCH  22  24
ATOM     24  C   UNL     1      -2.192  43.661  50.248  1.00  0.00     0.042 A 
ATOM     25  C   UNL     1      -2.934  44.866  50.349  1.00  0.00     0.016 A 
ATOM     26  C   UNL     1      -2.107  42.992  49.006  1.00  0.00     0.042 A 
ATOM     27  C   UNL     1      -3.560  45.421  49.219  1.00  0.00     0.031 A 
ATOM     28  C   UNL     1      -2.735  43.577  47.904  1.00  0.00     0.070 A 
ATOM     29  C   UNL     1      -3.435  44.745  48.009  1.00  0.00     0.091 A 
ATOM     30  N   UNL     1      -2.802  43.143  46.633  1.00  0.00    -0.314 N 
ATOM     31  N   UNL     1      -3.980  45.083  46.826  1.00  0.00    -0.213 NA
ATOM     32  C   UNL     1      -3.574  44.075  46.012  1.00  0.00     0.200 A 
ATOM     33  C   UNL     1      -2.257  41.911  46.063  1.00  0.00     0.153 C 
BRANCH  32  34
ATOM     34  N   UNL     1      -3.962  43.999  44.639  1.00  0.00    -0.369 N 
ATOM     35  H   UNL     1      -3.278  44.178  43.872  1.00  0.00     0.159 HD
ATOM     36  H   UNL     1      -4.939  43.734  44.387  1.00  0.00     0.159 HD
ENDBRANCH  32  34
ENDBRANCH  22  24
ENDBRANCH   4  22
TORSDOF 5
ENDMDL
