MODEL 1
REMARK VINA RESULT:    -7.528      0.000      0.000
REMARK INTER + INTRA:          -9.926
REMARK INTER:                  -9.289
REMARK INTRA:                  -0.637
REMARK UNBOUND:                -0.637
REMARK SMILES CN1CC[C@@](C)(CNC(=O)Nc2ccc(-c3ncco3)cc2)C1
REMARK SMILES IDX 8 1 9 2 10 3 11 4 7 7 5 8 2 9 3 10 23 11 4 12 1 13 6 14
REMARK SMILES IDX 12 15 13 16 22 17 14 18 21 19 15 20 16 21 17 22 20 23 18 24
REMARK SMILES IDX 19 25
REMARK H PARENT 8 5 11 6
ROOT
ATOM      1  N   UNL     1       0.863  43.564  50.897  1.00  0.00    -0.337 N 
ATOM      2  C   UNL     1       1.978  44.392  51.258  1.00  0.00     0.319 C 
ATOM      3  O   UNL     1       1.793  45.601  51.567  1.00  0.00    -0.249 OA
ATOM      4  N   UNL     1       3.305  43.848  51.218  1.00  0.00    -0.308 N 
ATOM      5  H   UNL     1       1.045  42.567  50.646  1.00  0.00     0.165 HD
ATOM      6  H   UNL     1       3.445  42.952  50.699  1.00  0.00     0.171 HD
ENDROOT
BRANCH   1   7
ATOM      7  C   UNL     1      -0.520  44.046  50.873  1.00  0.00     0.125 C 
BRANCH   7   8
ATOM      8  C   UNL     1      -1.429  43.280  51.880  1.00  0.00    -0.001 C 
ATOM      9  N   UNL     1      -0.486  43.430  54.131  1.00  0.00    -0.306 NA
ATOM     10  C   UNL     1      -1.353  44.593  53.891  1.00  0.00     0.085 C 
ATOM     11  C   UNL     1      -0.553  42.573  52.932  1.00  0.00     0.092 C 
ATOM     12  C   UNL     1      -2.261  44.240  52.730  1.00  0.00     0.025 C 
ATOM     13  C   UNL     1       0.893  43.837  54.441  1.00  0.00     0.105 C 
ATOM     14  C   UNL     1      -2.329  42.270  51.137  1.00  0.00     0.014 C 
ENDBRANCH   7   8
ENDBRANCH   1   7
BRANCH   4  15
ATOM     15  C   UNL     1       4.468  44.517  51.737  1.00  0.00     0.042 A 
ATOM     16  C   UNL     1       4.720  44.489  53.116  1.00  0.00     0.027 A 
ATOM     17  C   UNL     1       5.328  45.249  50.901  1.00  0.00     0.027 A 
ATOM     18  C   UNL     1       5.831  45.148  53.649  1.00  0.00     0.016 A 
ATOM     19  C   UNL     1       6.439  45.910  51.432  1.00  0.00     0.016 A 
ATOM     20  C   UNL     1       6.703  45.861  52.811  1.00  0.00     0.037 A 
BRANCH  20  21
ATOM     21  C   UNL     1       7.880  46.561  53.366  1.00  0.00     0.225 A 
ATOM     22  N   UNL     1       7.861  47.263  54.520  1.00  0.00    -0.218 NA
ATOM     23  O   UNL     1       9.062  46.569  52.792  1.00  0.00    -0.445 OA
ATOM     24  C   UNL     1       9.123  47.716  54.631  1.00  0.00     0.154 A 
ATOM     25  C   UNL     1       9.856  47.278  53.553  1.00  0.00     0.218 A 
ENDBRANCH  20  21
ENDBRANCH   4  15
TORSDOF 4
ENDMDL
MODEL 2
REMARK VINA RESULT:    -7.363      2.153      2.901
REMARK INTER + INTRA:          -9.722
REMARK INTER:                  -9.068
REMARK INTRA:                  -0.654
REMARK UNBOUND:                -0.637
REMARK SMILES CN1CC[C@@](C)(CNC(=O)Nc2ccc(-c3ncco3)cc2)C1
REMARK SMILES IDX 8 1 9 2 10 3 11 4 7 7 5 8 2 9 3 10 23 11 4 12 1 13 6 14
REMARK SMILES IDX 12 15 13 16 22 17 14 18 21 19 15 20 16 21 17 22 20 23 18 24
REMARK SMILES IDX 19 25
REMARK H PARENT 8 5 11 6
ROOT
ATOM      1  N   UNL     1       0.286  44.273  54.428  1.00  0.00    -0.337 N 
ATOM      2  C   UNL     1       1.538  44.892  54.098  1.00  0.00     0.319 C 
ATOM      3  O   UNL     1       1.576  46.114  53.788  1.00  0.00    -0.249 OA
ATOM      4  N   UNL     1       2.735  44.100  54.076  1.00  0.00    -0.308 N 
ATOM      5  H   UNL     1       0.284  43.260  54.680  1.00  0.00     0.165 HD
ATOM      6  H   UNL     1       2.626  43.060  54.060  1.00  0.00     0.171 HD
ENDROOT
BRANCH   1   7
ATOM      7  C   UNL     1      -0.988  44.995  54.437  1.00  0.00     0.125 C 
BRANCH   7   8
ATOM      8  C   UNL     1      -1.759  44.814  55.779  1.00  0.00    -0.001 C 
ATOM      9  N   UNL     1      -0.491  45.825  57.609  1.00  0.00    -0.306 NA
ATOM     10  C   UNL     1      -1.353  46.845  56.995  1.00  0.00     0.085 C 
ATOM     11  C   UNL     1      -0.756  44.548  56.919  1.00  0.00     0.092 C 
ATOM     12  C   UNL     1      -2.431  46.112  56.223  1.00  0.00     0.025 C 
ATOM     13  C   UNL     1       0.929  46.204  57.542  1.00  0.00     0.105 C 
ATOM     14  C   UNL     1      -2.784  43.665  55.663  1.00  0.00     0.014 C 
ENDBRANCH   7   8
ENDBRANCH   1   7
BRANCH   4  15
ATOM     15  C   UNL     1       4.060  44.644  53.949  1.00  0.00     0.042 A 
ATOM     16  C   UNL     1       4.727  45.105  55.093  1.00  0.00     0.027 A 
ATOM     17  C   UNL     1       4.682  44.779  52.696  1.00  0.00     0.027 A 
ATOM     18  C   UNL     1       6.008  45.656  54.995  1.00  0.00     0.016 A 
ATOM     19  C   UNL     1       5.962  45.331  52.596  1.00  0.00     0.016 A 
ATOM     20  C   UNL     1       6.638  45.771  53.746  1.00  0.00     0.037 A 
BRANCH  20  21
ATOM     21  C   UNL     1       7.991  46.353  53.634  1.00  0.00     0.225 A 
ATOM     22  N   UNL     1       8.538  47.167  54.563  1.00  0.00    -0.218 NA
ATOM     23  O   UNL     1       8.797  46.136  52.618  1.00  0.00    -0.445 OA
ATOM     24  C   UNL     1       9.752  47.448  54.056  1.00  0.00     0.154 A 
ATOM     25  C   UNL     1       9.899  46.803  52.851  1.00  0.00     0.218 A 
ENDBRANCH  20  21
ENDBRANCH   4  15
TORSDOF 4
ENDMDL
MODEL 3
REMARK VINA RESULT:    -7.296      1.604      2.478
REMARK INTER + INTRA:          -9.639
REMARK INTER:                  -9.013
REMARK INTRA:                  -0.626
REMARK UNBOUND:                -0.637
REMARK SMILES CN1CC[C@@](C)(CNC(=O)Nc2ccc(-c3ncco3)cc2)C1
REMARK SMILES IDX 8 1 9 2 10 3 11 4 7 7 5 8 2 9 3 10 23 11 4 12 1 13 6 14
REMARK SMILES IDX 12 15 13 16 22 17 14 18 21 19 15 20 16 21 17 22 20 23 18 24
REMARK SMILES IDX 19 25
REMARK H PARENT 8 5 11 6
ROOT
ATOM      1  N   UNL     1       0.656  44.233  50.828  1.00  0.00    -0.337 N 
ATOM      2  C   UNL     1       1.964  44.454  51.377  1.00  0.00     0.319 C 
ATOM      3  O   UNL     1       2.444  43.639  52.213  1.00  0.00    -0.249 OA
ATOM      4  N   UNL     1       2.699  45.629  51.006  1.00  0.00    -0.308 N 
ATOM      5  H   UNL     1       0.285  44.924  50.138  1.00  0.00     0.165 HD
ATOM      6  H   UNL     1       2.169  46.404  50.545  1.00  0.00     0.171 HD
ENDROOT
BRANCH   1   7
ATOM      7  C   UNL     1      -0.178  43.082  51.180  1.00  0.00     0.125 C 
BRANCH   7   8
ATOM      8  C   UNL     1      -1.339  43.469  52.143  1.00  0.00    -0.001 C 
ATOM      9  N   UNL     1      -3.042  44.735  50.929  1.00  0.00    -0.306 NA
ATOM     10  C   UNL     1      -3.327  43.298  50.805  1.00  0.00     0.085 C 
ATOM     11  C   UNL     1      -1.855  44.878  51.792  1.00  0.00     0.092 C 
ATOM     12  C   UNL     1      -2.574  42.596  51.917  1.00  0.00     0.025 C 
ATOM     13  C   UNL     1      -2.846  45.364  49.613  1.00  0.00     0.105 C 
ATOM     14  C   UNL     1      -0.869  43.399  53.612  1.00  0.00     0.014 C 
ENDBRANCH   7   8
ENDBRANCH   1   7
BRANCH   4  15
ATOM     15  C   UNL     1       4.079  45.858  51.339  1.00  0.00     0.042 A 
ATOM     16  C   UNL     1       5.081  45.218  50.595  1.00  0.00     0.027 A 
ATOM     17  C   UNL     1       4.448  46.661  52.431  1.00  0.00     0.027 A 
ATOM     18  C   UNL     1       6.429  45.405  50.910  1.00  0.00     0.016 A 
ATOM     19  C   UNL     1       5.796  46.849  52.748  1.00  0.00     0.016 A 
ATOM     20  C   UNL     1       6.799  46.226  51.987  1.00  0.00     0.037 A 
BRANCH  20  21
ATOM     21  C   UNL     1       8.223  46.430  52.326  1.00  0.00     0.225 A 
ATOM     22  N   UNL     1       8.645  47.070  53.438  1.00  0.00    -0.218 NA
ATOM     23  O   UNL     1       9.219  46.009  51.580  1.00  0.00    -0.445 OA
ATOM     24  C   UNL     1       9.986  47.021  53.337  1.00  0.00     0.154 A 
ATOM     25  C   UNL     1      10.327  46.360  52.180  1.00  0.00     0.218 A 
ENDBRANCH  20  21
ENDBRANCH   4  15
TORSDOF 4
ENDMDL
MODEL 4
REMARK VINA RESULT:    -7.094      2.051      8.704
REMARK INTER + INTRA:          -9.390
REMARK INTER:                  -8.832
REMARK INTRA:                  -0.558
REMARK UNBOUND:                -0.637
REMARK SMILES CN1CC[C@@](C)(CNC(=O)Nc2ccc(-c3ncco3)cc2)C1
REMARK SMILES IDX 8 1 9 2 10 3 11 4 7 7 5 8 2 9 3 10 23 11 4 12 1 13 6 14
REMARK SMILES IDX 12 15 13 16 22 17 14 18 21 19 15 20 16 21 17 22 20 23 18 24
REMARK SMILES IDX 19 25
REMARK H PARENT 8 5 11 6
ROOT
ATOM      1  N   UNL     1       6.683  45.637  54.123  1.00  0.00    -0.337 N 
ATOM      2  C   UNL     1       5.298  45.468  53.785  1.00  0.00     0.319 C 
ATOM      3  O   UNL     1       4.546  46.475  53.680  1.00  0.00    -0.249 OA
ATOM      4  N   UNL     1       4.768  44.145  53.616  1.00  0.00    -0.308 N 
ATOM      5  H   UNL     1       7.282  44.786  54.204  1.00  0.00     0.165 HD
ATOM      6  H   UNL     1       5.336  43.346  53.980  1.00  0.00     0.171 HD
ENDROOT
BRANCH   1   7
ATOM      7  C   UNL     1       7.299  46.946  54.352  1.00  0.00     0.125 C 
BRANCH   7   8
ATOM      8  C   UNL     1       8.653  47.100  53.598  1.00  0.00    -0.001 C 
ATOM      9  N   UNL     1       8.421  46.303  51.299  1.00  0.00    -0.306 NA
ATOM     10  C   UNL     1       8.040  47.722  51.360  1.00  0.00     0.085 C 
ATOM     11  C   UNL     1       8.856  45.902  52.650  1.00  0.00     0.092 C 
ATOM     12  C   UNL     1       8.631  48.287  52.636  1.00  0.00     0.025 C 
ATOM     13  C   UNL     1       7.317  45.466  50.805  1.00  0.00     0.105 C 
ATOM     14  C   UNL     1       9.820  47.218  54.602  1.00  0.00     0.014 C 
ENDBRANCH   7   8
ENDBRANCH   1   7
BRANCH   4  15
ATOM     15  C   UNL     1       3.458  43.861  53.095  1.00  0.00     0.042 A 
ATOM     16  C   UNL     1       2.331  44.117  53.889  1.00  0.00     0.027 A 
ATOM     17  C   UNL     1       3.283  43.276  51.829  1.00  0.00     0.027 A 
ATOM     18  C   UNL     1       1.048  43.830  53.415  1.00  0.00     0.016 A 
ATOM     19  C   UNL     1       2.000  42.987  51.354  1.00  0.00     0.016 A 
ATOM     20  C   UNL     1       0.871  43.267  52.142  1.00  0.00     0.037 A 
BRANCH  20  21
ATOM     21  C   UNL     1      -0.482  42.961  51.633  1.00  0.00     0.225 A 
ATOM     22  N   UNL     1      -1.414  42.282  52.338  1.00  0.00    -0.218 NA
ATOM     23  O   UNL     1      -0.914  43.319  50.444  1.00  0.00    -0.445 OA
ATOM     24  C   UNL     1      -2.467  42.239  51.502  1.00  0.00     0.154 A 
ATOM     25  C   UNL     1      -2.143  42.885  50.332  1.00  0.00     0.218 A 
ENDBRANCH  20  21
ENDBRANCH   4  15
TORSDOF 4
ENDMDL
MODEL 5
REMARK VINA RESULT:    -7.053      2.266      9.138
REMARK INTER + INTRA:          -9.339
REMARK INTER:                  -8.840
REMARK INTRA:                  -0.499
REMARK UNBOUND:                -0.637
REMARK SMILES CN1CC[C@@](C)(CNC(=O)Nc2ccc(-c3ncco3)cc2)C1
REMARK SMILES IDX 8 1 9 2 10 3 11 4 7 7 5 8 2 9 3 10 23 11 4 12 1 13 6 14
REMARK SMILES IDX 12 15 13 16 22 17 14 18 21 19 15 20 16 21 17 22 20 23 18 24
REMARK SMILES IDX 19 25
REMARK H PARENT 8 5 11 6
ROOT
ATOM      1  N   UNL     1       6.560  46.772  54.522  1.00  0.00    -0.337 N 
ATOM      2  C   UNL     1       5.381  46.136  54.006  1.00  0.00     0.319 C 
ATOM      3  O   UNL     1       5.482  45.098  53.297  1.00  0.00    -0.249 OA
ATOM      4  N   UNL     1       4.094  46.717  54.262  1.00  0.00    -0.308 N 
ATOM      5  H   UNL     1       6.446  47.630  55.106  1.00  0.00     0.165 HD
ATOM      6  H   UNL     1       4.069  47.706  54.602  1.00  0.00     0.171 HD
ENDROOT
BRANCH   1   7
ATOM      7  C   UNL     1       7.914  46.270  54.278  1.00  0.00     0.125 C 
BRANCH   7   8
ATOM      8  C   UNL     1       8.894  47.404  53.853  1.00  0.00    -0.001 C 
ATOM      9  N   UNL     1      10.000  46.804  51.756  1.00  0.00    -0.306 NA
ATOM     10  C   UNL     1       8.732  47.485  51.457  1.00  0.00     0.085 C 
ATOM     11  C   UNL     1      10.157  46.785  53.223  1.00  0.00     0.092 C 
ATOM     12  C   UNL     1       8.326  48.241  52.707  1.00  0.00     0.025 C 
ATOM     13  C   UNL     1      10.037  45.451  51.180  1.00  0.00     0.105 C 
ATOM     14  C   UNL     1       9.255  48.289  55.065  1.00  0.00     0.014 C 
ENDBRANCH   7   8
ENDBRANCH   1   7
BRANCH   4  15
ATOM     15  C   UNL     1       2.843  46.073  53.963  1.00  0.00     0.042 A 
ATOM     16  C   UNL     1       2.244  46.283  52.712  1.00  0.00     0.027 A 
ATOM     17  C   UNL     1       2.176  45.286  54.916  1.00  0.00     0.027 A 
ATOM     18  C   UNL     1       1.018  45.686  52.403  1.00  0.00     0.016 A 
ATOM     19  C   UNL     1       0.950  44.689  54.609  1.00  0.00     0.016 A 
ATOM     20  C   UNL     1       0.362  44.881  53.347  1.00  0.00     0.037 A 
BRANCH  20  21
ATOM     21  C   UNL     1      -0.933  44.246  53.029  1.00  0.00     0.225 A 
ATOM     22  N   UNL     1      -1.117  43.388  52.002  1.00  0.00    -0.218 NA
ATOM     23  O   UNL     1      -2.037  44.455  53.712  1.00  0.00    -0.445 OA
ATOM     24  C   UNL     1      -2.421  43.070  52.090  1.00  0.00     0.154 A 
ATOM     25  C   UNL     1      -2.979  43.739  53.154  1.00  0.00     0.218 A 
ENDBRANCH  20  21
ENDBRANCH   4  15
TORSDOF 4
ENDMDL
