ligand_36_conformer_3_docked
     RDKit          3D

 42 45  0  0  0  0  0  0  0  0999 V2000
    2.8000   44.5400   55.3180 O   0  0  0  0  0  0  0  0  0  0  0  0
    3.0140   45.0300   54.1770 C   0  0  0  0  0  0  0  0  0  0  0  0
    1.9860   44.8770   53.1300 C   0  0  0  0  0  0  0  0  0  0  0  0
    0.7420   45.4740   53.1290 C   0  0  0  0  0  0  0  0  0  0  0  0
    0.1450   45.2130   51.9530 N   0  0  0  0  0  0  0  0  0  0  0  0
    0.9450   44.4780   51.1970 N   0  0  0  0  0  0  0  0  0  0  0  0
    2.0810   44.2550   51.8890 C   0  0  0  0  0  0  0  0  0  0  0  0
    3.1750   43.4110   51.3720 C   0  0  0  0  0  0  0  0  0  0  0  0
    3.1740   42.0190   51.3670 C   0  0  0  0  0  0  0  0  0  0  0  0
    4.3650   41.4610   50.8900 C   0  0  0  0  0  0  0  0  0  0  0  0
    5.3080   42.4140   50.5360 C   0  0  0  0  0  0  0  0  0  0  0  0
    6.9130   42.0860   49.9160 Cl  0  0  0  0  0  0  0  0  0  0  0  0
    4.6750   43.9440   50.8140 S   0  0  0  0  0  0  0  0  0  0  0  0
    4.2710   45.6850   53.9060 N   0  0  0  0  0  0  0  0  0  0  0  0
    5.5020   45.1960   54.5350 C   0  0  0  0  0  0  0  0  0  0  0  0
    6.4420   46.3640   54.8760 C   0  0  0  0  0  0  0  0  0  0  0  0
    6.6170   47.3160   53.7550 N   0  0  0  0  0  0  0  0  0  0  0  0
    7.4770   46.7970   52.6700 C   0  0  0  0  0  0  0  0  0  0  0  0
    8.8570   47.4720   52.7250 C   0  0  0  0  0  0  0  0  0  0  0  0
    9.9100   46.7450   53.5490 C   0  0  0  0  0  0  0  0  0  0  0  0
    9.9760   46.7140   52.0290 C   0  0  0  0  0  0  0  0  0  0  0  0
    5.3140   47.8130   53.2700 C   0  0  0  0  0  0  0  0  0  0  0  0
    4.3920   46.6730   52.8280 C   0  0  0  0  0  0  0  0  0  0  0  0
    0.3114   46.0639   53.9516 H   0  0  0  0  0  0  0  0  0  0  0  0
   -0.8000   45.5430   51.6590 H   0  0  0  0  0  0  0  0  0  0  0  0
    2.3188   41.4156   51.7056 H   0  0  0  0  0  0  0  0  0  0  0  0
    4.5358   40.3777   50.8046 H   0  0  0  0  0  0  0  0  0  0  0  0
    5.2455   44.6578   55.4594 H   0  0  0  0  0  0  0  0  0  0  0  0
    6.0151   44.5245   53.8309 H   0  0  0  0  0  0  0  0  0  0  0  0
    6.0255   46.9088   55.7361 H   0  0  0  0  0  0  0  0  0  0  0  0
    7.4301   45.9351   55.0990 H   0  0  0  0  0  0  0  0  0  0  0  0
    7.5980   45.7102   52.7893 H   0  0  0  0  0  0  0  0  0  0  0  0
    7.0063   47.0156   51.7001 H   0  0  0  0  0  0  0  0  0  0  0  0
    8.4713   48.5016   52.6902 H   0  0  0  0  0  0  0  0  0  0  0  0
   10.6543   47.3190   54.1204 H   0  0  0  0  0  0  0  0  0  0  0  0
    9.8881   45.9837   54.3427 H   0  0  0  0  0  0  0  0  0  0  0  0
   10.7685   47.2653   51.5016 H   0  0  0  0  0  0  0  0  0  0  0  0
   10.0219   45.9204   51.2687 H   0  0  0  0  0  0  0  0  0  0  0  0
    4.8235   48.3722   54.0804 H   0  0  0  0  0  0  0  0  0  0  0  0
    5.4999   48.4565   52.3974 H   0  0  0  0  0  0  0  0  0  0  0  0
    3.3974   47.0787   52.5912 H   0  0  0  0  0  0  0  0  0  0  0  0
    4.8162   46.1877   51.9366 H   0  0  0  0  0  0  0  0  0  0  0  0
  1  2  2  0
  2  3  1  0
  3  4  2  0
  4  5  1  0
  5  6  1  0
  6  7  2  0
  7  8  1  0
  8  9  2  0
  9 10  1  0
 10 11  2  0
 11 12  1  0
 11 13  1  0
  2 14  1  0
 14 15  1  0
 15 16  1  0
 16 17  1  0
 17 18  1  0
 18 19  1  0
 19 20  1  0
 20 21  1  0
 17 22  1  0
 22 23  1  0
  7  3  1  0
 13  8  1  0
 23 14  1  0
 21 19  1  0
  4 24  1  0
  5 25  1  0
  9 26  1  0
 10 27  1  0
 15 28  1  0
 15 29  1  0
 16 30  1  0
 16 31  1  0
 18 32  1  0
 18 33  1  0
 19 34  1  0
 20 35  1  0
 20 36  1  0
 21 37  1  0
 21 38  1  0
 22 39  1  0
 22 40  1  0
 23 41  1  0
 23 42  1  0
M  END
>  <meeko>  (1) 
{"is_sidechain": [false], "free_energy": -7.949, "intermolecular_energy": -9.807, "internal_energy": -0.413}

$$$$
ligand_36_conformer_3_docked
     RDKit          3D

 42 45  0  0  0  0  0  0  0  0999 V2000
    1.8700   46.7330   52.3020 O   0  0  0  0  0  0  0  0  0  0  0  0
    2.6030   45.7330   52.5320 C   0  0  0  0  0  0  0  0  0  0  0  0
    1.9730   44.4090   52.6940 C   0  0  0  0  0  0  0  0  0  0  0  0
    2.0310   43.3720   51.7860 C   0  0  0  0  0  0  0  0  0  0  0  0
    1.4610   42.2880   52.3400 N   0  0  0  0  0  0  0  0  0  0  0  0
    1.0400   42.5770   53.5610 N   0  0  0  0  0  0  0  0  0  0  0  0
    1.3390   43.8690   53.8080 C   0  0  0  0  0  0  0  0  0  0  0  0
    0.9540   44.5490   55.0590 C   0  0  0  0  0  0  0  0  0  0  0  0
   -0.3500   44.6720   55.5310 C   0  0  0  0  0  0  0  0  0  0  0  0
   -0.4510   45.4290   56.7040 C   0  0  0  0  0  0  0  0  0  0  0  0
    0.7720   45.9130   57.1450 C   0  0  0  0  0  0  0  0  0  0  0  0
    1.0280   46.9060   58.5640 Cl  0  0  0  0  0  0  0  0  0  0  0  0
    1.9750   45.4120   56.0870 S   0  0  0  0  0  0  0  0  0  0  0  0
    4.0270   45.9110   52.6760 N   0  0  0  0  0  0  0  0  0  0  0  0
    4.5540   47.1330   53.2920 C   0  0  0  0  0  0  0  0  0  0  0  0
    5.8710   47.5590   52.6210 C   0  0  0  0  0  0  0  0  0  0  0  0
    6.8310   46.4430   52.4640 N   0  0  0  0  0  0  0  0  0  0  0  0
    7.4790   46.0390   53.7310 C   0  0  0  0  0  0  0  0  0  0  0  0
    8.4610   47.1290   54.1880 C   0  0  0  0  0  0  0  0  0  0  0  0
    9.9000   46.6750   54.3850 C   0  0  0  0  0  0  0  0  0  0  0  0
    9.5240   47.5110   53.1700 C   0  0  0  0  0  0  0  0  0  0  0  0
    6.2160   45.3080   51.7450 C   0  0  0  0  0  0  0  0  0  0  0  0
    4.9540   44.7980   52.4480 C   0  0  0  0  0  0  0  0  0  0  0  0
    2.4697   43.4235   50.7786 H   0  0  0  0  0  0  0  0  0  0  0  0
    1.3680   41.3500   51.8940 H   0  0  0  0  0  0  0  0  0  0  0  0
   -1.2177   44.2178   55.0301 H   0  0  0  0  0  0  0  0  0  0  0  0
   -1.4020   45.6204   57.2226 H   0  0  0  0  0  0  0  0  0  0  0  0
    3.8151   47.9403   53.1810 H   0  0  0  0  0  0  0  0  0  0  0  0
    4.7485   46.9355   54.3565 H   0  0  0  0  0  0  0  0  0  0  0  0
    5.6409   47.9654   51.6251 H   0  0  0  0  0  0  0  0  0  0  0  0
    6.3435   48.3085   53.2729 H   0  0  0  0  0  0  0  0  0  0  0  0
    6.7098   45.8940   54.5038 H   0  0  0  0  0  0  0  0  0  0  0  0
    8.0292   45.0998   53.5725 H   0  0  0  0  0  0  0  0  0  0  0  0
    7.7292   47.6795   54.7974 H   0  0  0  0  0  0  0  0  0  0  0  0
   10.5105   47.1144   55.1876 H   0  0  0  0  0  0  0  0  0  0  0  0
   10.3958   45.7052   54.5391 H   0  0  0  0  0  0  0  0  0  0  0  0
    9.8631   48.5547   53.0943 H   0  0  0  0  0  0  0  0  0  0  0  0
    9.6358   47.3956   52.0818 H   0  0  0  0  0  0  0  0  0  0  0  0
    5.9491   45.6342   50.7290 H   0  0  0  0  0  0  0  0  0  0  0  0
    6.9465   44.4859   51.7205 H   0  0  0  0  0  0  0  0  0  0  0  0
    4.4661   44.0400   51.8176 H   0  0  0  0  0  0  0  0  0  0  0  0
    5.2320   44.3535   53.4151 H   0  0  0  0  0  0  0  0  0  0  0  0
  1  2  2  0
  2  3  1  0
  3  4  2  0
  4  5  1  0
  5  6  1  0
  6  7  2  0
  7  8  1  0
  8  9  2  0
  9 10  1  0
 10 11  2  0
 11 12  1  0
 11 13  1  0
  2 14  1  0
 14 15  1  0
 15 16  1  0
 16 17  1  0
 17 18  1  0
 18 19  1  0
 19 20  1  0
 20 21  1  0
 17 22  1  0
 22 23  1  0
  7  3  1  0
 13  8  1  0
 23 14  1  0
 21 19  1  0
  4 24  1  0
  5 25  1  0
  9 26  1  0
 10 27  1  0
 15 28  1  0
 15 29  1  0
 16 30  1  0
 16 31  1  0
 18 32  1  0
 18 33  1  0
 19 34  1  0
 20 35  1  0
 20 36  1  0
 21 37  1  0
 21 38  1  0
 22 39  1  0
 22 40  1  0
 23 41  1  0
 23 42  1  0
M  END
>  <meeko>  (2) 
{"is_sidechain": [false], "free_energy": -7.801, "intermolecular_energy": -9.532, "internal_energy": -0.506}

$$$$
ligand_36_conformer_3_docked
     RDKit          3D

 42 45  0  0  0  0  0  0  0  0999 V2000
    2.8940   46.7400   51.9730 O   0  0  0  0  0  0  0  0  0  0  0  0
    3.7100   45.7810   52.0430 C   0  0  0  0  0  0  0  0  0  0  0  0
    3.1900   44.4010   52.0410 C   0  0  0  0  0  0  0  0  0  0  0  0
    3.5090   43.4210   51.1230 C   0  0  0  0  0  0  0  0  0  0  0  0
    2.9540   42.2640   51.5250 N   0  0  0  0  0  0  0  0  0  0  0  0
    2.2960   42.4520   52.6580 N   0  0  0  0  0  0  0  0  0  0  0  0
    2.4210   43.7500   53.0000 C   0  0  0  0  0  0  0  0  0  0  0  0
    1.7550   44.3290   54.1820 C   0  0  0  0  0  0  0  0  0  0  0  0
    0.3770   44.3720   54.3800 C   0  0  0  0  0  0  0  0  0  0  0  0
    0.0010   45.0430   55.5490 C   0  0  0  0  0  0  0  0  0  0  0  0
    1.0810   45.5400   56.2620 C   0  0  0  0  0  0  0  0  0  0  0  0
    0.9920   46.4430   57.7600 Cl  0  0  0  0  0  0  0  0  0  0  0  0
    2.5000   45.1570   55.4490 S   0  0  0  0  0  0  0  0  0  0  0  0
    5.1210   46.0530   52.1690 N   0  0  0  0  0  0  0  0  0  0  0  0
    5.5770   47.2200   52.9310 C   0  0  0  0  0  0  0  0  0  0  0  0
    6.8300   47.8370   52.2870 C   0  0  0  0  0  0  0  0  0  0  0  0
    7.8650   46.8340   51.9500 N   0  0  0  0  0  0  0  0  0  0  0  0
    8.5930   46.3180   53.1300 C   0  0  0  0  0  0  0  0  0  0  0  0
    9.6220   47.3540   53.6060 C   0  0  0  0  0  0  0  0  0  0  0  0
    9.2590   48.1050   54.8790 C   0  0  0  0  0  0  0  0  0  0  0  0
   10.3230   47.0180   54.9140 C   0  0  0  0  0  0  0  0  0  0  0  0
    7.3110   45.7600   51.1010 C   0  0  0  0  0  0  0  0  0  0  0  0
    6.1210   45.0600   51.7630 C   0  0  0  0  0  0  0  0  0  0  0  0
    4.1148   43.5625   50.2158 H   0  0  0  0  0  0  0  0  0  0  0  0
    3.0330   41.3450   51.0380 H   0  0  0  0  0  0  0  0  0  0  0  0
   -0.3463   43.9217   53.6842 H   0  0  0  0  0  0  0  0  0  0  0  0
   -1.0444   45.1637   55.8693 H   0  0  0  0  0  0  0  0  0  0  0  0
    4.7749   47.9725   52.9527 H   0  0  0  0  0  0  0  0  0  0  0  0
    5.8277   46.8982   53.9526 H   0  0  0  0  0  0  0  0  0  0  0  0
    6.5302   48.3541   51.3636 H   0  0  0  0  0  0  0  0  0  0  0  0
    7.2699   48.5271   53.0221 H   0  0  0  0  0  0  0  0  0  0  0  0
    7.8770   46.1166   53.9405 H   0  0  0  0  0  0  0  0  0  0  0  0
    9.1154   45.3899   52.8549 H   0  0  0  0  0  0  0  0  0  0  0  0
    9.9480   47.6466   52.5970 H   0  0  0  0  0  0  0  0  0  0  0  0
    9.5467   49.1602   54.9961 H   0  0  0  0  0  0  0  0  0  0  0  0
    8.3261   48.2983   55.4289 H   0  0  0  0  0  0  0  0  0  0  0  0
   11.3799   47.2874   55.0565 H   0  0  0  0  0  0  0  0  0  0  0  0
   10.4779   46.1000   55.4998 H   0  0  0  0  0  0  0  0  0  0  0  0
    6.9801   46.1967   50.1471 H   0  0  0  0  0  0  0  0  0  0  0  0
    8.1007   45.0106   50.9436 H   0  0  0  0  0  0  0  0  0  0  0  0
    5.6678   44.3569   51.0487 H   0  0  0  0  0  0  0  0  0  0  0  0
    6.4705   44.5136   52.6514 H   0  0  0  0  0  0  0  0  0  0  0  0
  1  2  2  0
  2  3  1  0
  3  4  2  0
  4  5  1  0
  5  6  1  0
  6  7  2  0
  7  8  1  0
  8  9  2  0
  9 10  1  0
 10 11  2  0
 11 12  1  0
 11 13  1  0
  2 14  1  0
 14 15  1  0
 15 16  1  0
 16 17  1  0
 17 18  1  0
 18 19  1  0
 19 20  1  0
 20 21  1  0
 17 22  1  0
 22 23  1  0
  7  3  1  0
 13  8  1  0
 23 14  1  0
 21 19  1  0
  4 24  1  0
  5 25  1  0
  9 26  1  0
 10 27  1  0
 15 28  1  0
 15 29  1  0
 16 30  1  0
 16 31  1  0
 18 32  1  0
 18 33  1  0
 19 34  1  0
 20 35  1  0
 20 36  1  0
 21 37  1  0
 21 38  1  0
 22 39  1  0
 22 40  1  0
 23 41  1  0
 23 42  1  0
M  END
>  <meeko>  (3) 
{"is_sidechain": [false], "free_energy": -7.71, "intermolecular_energy": -9.723, "internal_energy": -0.204}

$$$$
ligand_36_conformer_3_docked
     RDKit          3D

 42 45  0  0  0  0  0  0  0  0999 V2000
    1.9590   46.6670   52.8660 O   0  0  0  0  0  0  0  0  0  0  0  0
    2.6200   46.2060   53.8350 C   0  0  0  0  0  0  0  0  0  0  0  0
    1.8940   45.6480   54.9920 C   0  0  0  0  0  0  0  0  0  0  0  0
    2.0590   46.0300   56.3080 C   0  0  0  0  0  0  0  0  0  0  0  0
    1.1330   45.4030   57.0530 N   0  0  0  0  0  0  0  0  0  0  0  0
    0.3780   44.6380   56.2810 N   0  0  0  0  0  0  0  0  0  0  0  0
    0.8190   44.7660   55.0120 C   0  0  0  0  0  0  0  0  0  0  0  0
    0.2450   44.0000   53.8900 C   0  0  0  0  0  0  0  0  0  0  0  0
    0.6350   42.7150   53.5200 C   0  0  0  0  0  0  0  0  0  0  0  0
   -0.0140   42.2430   52.3740 C   0  0  0  0  0  0  0  0  0  0  0  0
   -0.9010   43.1620   51.8330 C   0  0  0  0  0  0  0  0  0  0  0  0
   -1.8740   42.9240   50.3970 Cl  0  0  0  0  0  0  0  0  0  0  0  0
   -0.8830   44.5580   52.7670 S   0  0  0  0  0  0  0  0  0  0  0  0
    4.0610   46.2760   53.8140 N   0  0  0  0  0  0  0  0  0  0  0  0
    4.7290   47.4200   53.1870 C   0  0  0  0  0  0  0  0  0  0  0  0
    6.0270   46.9800   52.4890 C   0  0  0  0  0  0  0  0  0  0  0  0
    6.8770   46.1130   53.3370 N   0  0  0  0  0  0  0  0  0  0  0  0
    7.5760   46.8460   54.4160 C   0  0  0  0  0  0  0  0  0  0  0  0
    8.7830   47.6020   53.8400 C   0  0  0  0  0  0  0  0  0  0  0  0
   10.1210   47.3030   54.4990 C   0  0  0  0  0  0  0  0  0  0  0  0
    9.8080   46.7370   53.1220 C   0  0  0  0  0  0  0  0  0  0  0  0
    6.1220   44.9440   53.8310 C   0  0  0  0  0  0  0  0  0  0  0  0
    4.8740   45.3560   54.6170 C   0  0  0  0  0  0  0  0  0  0  0  0
    2.8202   46.7297   56.6836 H   0  0  0  0  0  0  0  0  0  0  0  0
    1.0050   45.5040   58.0830 H   0  0  0  0  0  0  0  0  0  0  0  0
    1.3813   42.1279   54.0753 H   0  0  0  0  0  0  0  0  0  0  0  0
    0.1612   41.2451   51.9457 H   0  0  0  0  0  0  0  0  0  0  0  0
    4.0539   47.8685   52.4433 H   0  0  0  0  0  0  0  0  0  0  0  0
    4.9799   48.1529   53.9680 H   0  0  0  0  0  0  0  0  0  0  0  0
    5.7632   46.4263   51.5758 H   0  0  0  0  0  0  0  0  0  0  0  0
    6.6046   47.8894   52.2666 H   0  0  0  0  0  0  0  0  0  0  0  0
    6.8823   47.5644   54.8772 H   0  0  0  0  0  0  0  0  0  0  0  0
    7.9265   46.1282   55.1723 H   0  0  0  0  0  0  0  0  0  0  0  0
    8.2241   48.5173   53.5953 H   0  0  0  0  0  0  0  0  0  0  0  0
   10.8706   48.1006   54.6084 H   0  0  0  0  0  0  0  0  0  0  0  0
   10.4351   46.8755   55.4626 H   0  0  0  0  0  0  0  0  0  0  0  0
   10.3313   47.1253   52.2358 H   0  0  0  0  0  0  0  0  0  0  0  0
    9.8020   45.7308   52.6776 H   0  0  0  0  0  0  0  0  0  0  0  0
    5.8136   44.3314   52.9710 H   0  0  0  0  0  0  0  0  0  0  0  0
    6.7782   44.3780   54.5086 H   0  0  0  0  0  0  0  0  0  0  0  0
    4.2820   44.4606   54.8574 H   0  0  0  0  0  0  0  0  0  0  0  0
    5.1801   45.8590   55.5461 H   0  0  0  0  0  0  0  0  0  0  0  0
  1  2  2  0
  2  3  1  0
  3  4  2  0
  4  5  1  0
  5  6  1  0
  6  7  2  0
  7  8  1  0
  8  9  2  0
  9 10  1  0
 10 11  2  0
 11 12  1  0
 11 13  1  0
  2 14  1  0
 14 15  1  0
 15 16  1  0
 16 17  1  0
 17 18  1  0
 18 19  1  0
 19 20  1  0
 20 21  1  0
 17 22  1  0
 22 23  1  0
  7  3  1  0
 13  8  1  0
 23 14  1  0
 21 19  1  0
  4 24  1  0
  5 25  1  0
  9 26  1  0
 10 27  1  0
 15 28  1  0
 15 29  1  0
 16 30  1  0
 16 31  1  0
 18 32  1  0
 18 33  1  0
 19 34  1  0
 20 35  1  0
 20 36  1  0
 21 37  1  0
 21 38  1  0
 22 39  1  0
 22 40  1  0
 23 41  1  0
 23 42  1  0
M  END
>  <meeko>  (4) 
{"is_sidechain": [false], "free_energy": -7.643, "intermolecular_energy": -9.383, "internal_energy": -0.46}

$$$$
ligand_36_conformer_3_docked
     RDKit          3D

 42 45  0  0  0  0  0  0  0  0999 V2000
    2.2270   44.5330   54.5250 O   0  0  0  0  0  0  0  0  0  0  0  0
    3.0460   44.4510   53.5700 C   0  0  0  0  0  0  0  0  0  0  0  0
    2.7460   43.5380   52.4510 C   0  0  0  0  0  0  0  0  0  0  0  0
    3.6530   42.7100   51.8210 C   0  0  0  0  0  0  0  0  0  0  0  0
    2.9870   41.9330   50.9500 N   0  0  0  0  0  0  0  0  0  0  0  0
    1.6950   42.2180   50.9910 N   0  0  0  0  0  0  0  0  0  0  0  0
    1.5150   43.1970   51.9000 C   0  0  0  0  0  0  0  0  0  0  0  0
    0.1990   43.8100   52.1590 C   0  0  0  0  0  0  0  0  0  0  0  0
   -0.3060   44.9260   51.4970 C   0  0  0  0  0  0  0  0  0  0  0  0
   -1.5470   45.3510   51.9830 C   0  0  0  0  0  0  0  0  0  0  0  0
   -2.0110   44.5790   53.0380 C   0  0  0  0  0  0  0  0  0  0  0  0
   -3.5130   44.8240   53.9030 Cl  0  0  0  0  0  0  0  0  0  0  0  0
   -0.8890   43.3760   53.3730 S   0  0  0  0  0  0  0  0  0  0  0  0
    4.2710   45.2100   53.6130 N   0  0  0  0  0  0  0  0  0  0  0  0
    4.9440   45.4440   54.8960 C   0  0  0  0  0  0  0  0  0  0  0  0
    5.5910   46.8380   54.9270 C   0  0  0  0  0  0  0  0  0  0  0  0
    6.3820   47.1390   53.7130 N   0  0  0  0  0  0  0  0  0  0  0  0
    7.6740   46.4210   53.6560 C   0  0  0  0  0  0  0  0  0  0  0  0
    8.8040   47.4000   53.3030 C   0  0  0  0  0  0  0  0  0  0  0  0
   10.1280   47.1580   54.0120 C   0  0  0  0  0  0  0  0  0  0  0  0
    9.9730   46.7920   52.5430 C   0  0  0  0  0  0  0  0  0  0  0  0
    5.5720   46.9630   52.4910 C   0  0  0  0  0  0  0  0  0  0  0  0
    4.9950   45.5480   52.3830 C   0  0  0  0  0  0  0  0  0  0  0  0
    4.7379   42.6896   52.0014 H   0  0  0  0  0  0  0  0  0  0  0  0
    3.4070   41.2000   50.3370 H   0  0  0  0  0  0  0  0  0  0  0  0
    0.2207   45.4258   50.6707 H   0  0  0  0  0  0  0  0  0  0  0  0
   -2.0982   46.2091   51.5710 H   0  0  0  0  0  0  0  0  0  0  0  0
    4.2064   45.3707   55.7088 H   0  0  0  0  0  0  0  0  0  0  0  0
    5.7316   44.6869   55.0241 H   0  0  0  0  0  0  0  0  0  0  0  0
    4.7949   47.5912   55.0216 H   0  0  0  0  0  0  0  0  0  0  0  0
    6.2825   46.8592   55.7822 H   0  0  0  0  0  0  0  0  0  0  0  0
    7.8804   45.9642   54.6351 H   0  0  0  0  0  0  0  0  0  0  0  0
    7.6190   45.6395   52.8839 H   0  0  0  0  0  0  0  0  0  0  0  0
    8.1467   48.2704   53.1602 H   0  0  0  0  0  0  0  0  0  0  0  0
   10.7600   48.0101   54.3029 H   0  0  0  0  0  0  0  0  0  0  0  0
   10.4373   46.6189   54.9196 H   0  0  0  0  0  0  0  0  0  0  0  0
   10.4930   47.3795   51.7720 H   0  0  0  0  0  0  0  0  0  0  0  0
   10.1238   45.8787   51.9488 H   0  0  0  0  0  0  0  0  0  0  0  0
    4.7419   47.6845   52.5084 H   0  0  0  0  0  0  0  0  0  0  0  0
    6.2266   47.1299   51.6229 H   0  0  0  0  0  0  0  0  0  0  0  0
    4.3045   45.4998   51.5281 H   0  0  0  0  0  0  0  0  0  0  0  0
    5.8168   44.8314   52.2374 H   0  0  0  0  0  0  0  0  0  0  0  0
  1  2  2  0
  2  3  1  0
  3  4  2  0
  4  5  1  0
  5  6  1  0
  6  7  2  0
  7  8  1  0
  8  9  2  0
  9 10  1  0
 10 11  2  0
 11 12  1  0
 11 13  1  0
  2 14  1  0
 14 15  1  0
 15 16  1  0
 16 17  1  0
 17 18  1  0
 18 19  1  0
 19 20  1  0
 20 21  1  0
 17 22  1  0
 22 23  1  0
  7  3  1  0
 13  8  1  0
 23 14  1  0
 21 19  1  0
  4 24  1  0
  5 25  1  0
  9 26  1  0
 10 27  1  0
 15 28  1  0
 15 29  1  0
 16 30  1  0
 16 31  1  0
 18 32  1  0
 18 33  1  0
 19 34  1  0
 20 35  1  0
 20 36  1  0
 21 37  1  0
 21 38  1  0
 22 39  1  0
 22 40  1  0
 23 41  1  0
 23 42  1  0
M  END
>  <meeko>  (5) 
{"is_sidechain": [false], "free_energy": -7.358, "intermolecular_energy": -9.331, "internal_energy": -0.16}

$$$$
