ligand_29_conformer_4_docked
     RDKit          3D

 46 48  0  0  0  0  0  0  0  0999 V2000
   10.4920   47.3930   55.3580 C   0  0  0  0  0  0  0  0  0  0  0  0
    9.4860   47.2280   54.2580 C   0  0  0  0  0  0  0  0  0  0  0  0
    9.9070   47.1100   52.9250 C   0  0  0  0  0  0  0  0  0  0  0  0
    8.9710   46.9240   51.9050 C   0  0  0  0  0  0  0  0  0  0  0  0
    7.6090   46.8470   52.2070 C   0  0  0  0  0  0  0  0  0  0  0  0
    7.1720   46.9500   53.5380 C   0  0  0  0  0  0  0  0  0  0  0  0
    5.6980   46.8940   53.8660 C   0  0  0  0  0  0  0  0  0  0  0  0
    4.8020   46.7770   52.6100 C   0  0  2  0  0  0  0  0  0  0  0  0
    3.4980   47.5890   52.7370 C   0  0  0  0  0  0  0  0  0  0  0  0
    2.4200   46.7610   53.0830 O   0  0  0  0  0  0  0  0  0  0  0  0
    4.4940   45.3700   52.3230 N   0  0  0  0  0  0  0  0  0  0  0  0
    4.8750   44.7360   51.0930 C   0  0  0  0  0  0  0  0  0  0  0  0
    5.2940   45.4330   50.1290 O   0  0  0  0  0  0  0  0  0  0  0  0
    4.8250   43.2660   50.9690 C   0  0  0  0  0  0  0  0  0  0  0  0
    5.8270   42.4610   50.4630 C   0  0  0  0  0  0  0  0  0  0  0  0
    5.3570   41.2060   50.3630 N   0  0  0  0  0  0  0  0  0  0  0  0
    4.1030   41.1610   50.7790 N   0  0  0  0  0  0  0  0  0  0  0  0
    3.7490   42.4050   51.1630 C   0  0  0  0  0  0  0  0  0  0  0  0
    2.4180   42.7220   51.7210 C   0  0  0  0  0  0  0  0  0  0  0  0
    2.2500   42.8140   53.1120 C   0  0  0  0  0  0  0  0  0  0  0  0
    1.0000   43.1370   53.6510 C   0  0  0  0  0  0  0  0  0  0  0  0
   -0.0850   43.3850   52.8070 C   0  0  0  0  0  0  0  0  0  0  0  0
    0.0780   43.3190   51.4200 C   0  0  0  0  0  0  0  0  0  0  0  0
   -1.2800   43.6500   50.3600 Cl  0  0  0  0  0  0  0  0  0  0  0  0
    1.3270   42.9960   50.8770 C   0  0  0  0  0  0  0  0  0  0  0  0
    8.1190   47.1270   54.5610 C   0  0  0  0  0  0  0  0  0  0  0  0
    9.9873   47.3102   56.3319 H   0  0  0  0  0  0  0  0  0  0  0  0
   11.2586   46.6086   55.2745 H   0  0  0  0  0  0  0  0  0  0  0  0
   10.9679   48.3812   55.2745 H   0  0  0  0  0  0  0  0  0  0  0  0
   10.9785   47.1642   52.6821 H   0  0  0  0  0  0  0  0  0  0  0  0
    9.3071   46.8379   50.8611 H   0  0  0  0  0  0  0  0  0  0  0  0
    6.8760   46.7051   51.3992 H   0  0  0  0  0  0  0  0  0  0  0  0
    5.5152   46.0207   54.5093 H   0  0  0  0  0  0  0  0  0  0  0  0
    5.4373   47.8369   54.3689 H   0  0  0  0  0  0  0  0  0  0  0  0
    5.3734   47.2033   51.7723 H   0  0  0  0  0  0  0  0  0  0  0  0
    3.6264   48.3558   53.5152 H   0  0  0  0  0  0  0  0  0  0  0  0
    3.2816   48.0572   51.7654 H   0  0  0  0  0  0  0  0  0  0  0  0
    1.6210   47.1250   52.6190 H   0  0  0  0  0  0  0  0  0  0  0  0
    3.9880   44.8040   53.0410 H   0  0  0  0  0  0  0  0  0  0  0  0
    6.8395   42.7916   50.1881 H   0  0  0  0  0  0  0  0  0  0  0  0
    5.8840   40.3820   49.9970 H   0  0  0  0  0  0  0  0  0  0  0  0
    3.1044   42.6314   53.7804 H   0  0  0  0  0  0  0  0  0  0  0  0
    0.8714   43.1958   54.7419 H   0  0  0  0  0  0  0  0  0  0  0  0
   -1.0682   43.6323   53.2338 H   0  0  0  0  0  0  0  0  0  0  0  0
    1.4558   42.9563   49.7853 H   0  0  0  0  0  0  0  0  0  0  0  0
    7.7864   47.1869   55.6078 H   0  0  0  0  0  0  0  0  0  0  0  0
  1  2  1  0
  2  3  2  0
  3  4  1  0
  4  5  2  0
  5  6  1  0
  6  7  1  0
  7  8  1  0
  8  9  1  0
  9 10  1  0
  8 11  1  0
 11 12  1  0
 12 13  2  0
 12 14  1  0
 14 15  2  0
 15 16  1  0
 16 17  1  0
 17 18  2  0
 18 19  1  0
 19 20  2  0
 20 21  1  0
 21 22  2  0
 22 23  1  0
 23 24  1  0
 23 25  2  0
  6 26  2  0
 26  2  1  0
 18 14  1  0
 25 19  1  0
  1 27  1  0
  1 28  1  0
  1 29  1  0
  3 30  1  0
  4 31  1  0
  5 32  1  0
  7 33  1  0
  7 34  1  0
  8 35  1  6
  9 36  1  0
  9 37  1  0
 10 38  1  0
 11 39  1  0
 15 40  1  0
 16 41  1  0
 20 42  1  0
 21 43  1  0
 22 44  1  0
 25 45  1  0
 26 46  1  0
M  END
>  <meeko>  (1) 
{"is_sidechain": [false], "free_energy": -9.08, "intermolecular_energy": -12.53, "internal_energy": -0.919}

$$$$
ligand_29_conformer_4_docked
     RDKit          3D

 46 48  0  0  0  0  0  0  0  0999 V2000
   10.6250   46.3800   51.9140 C   0  0  0  0  0  0  0  0  0  0  0  0
    9.1660   46.1850   51.6270 C   0  0  0  0  0  0  0  0  0  0  0  0
    8.2140   47.0630   52.1680 C   0  0  0  0  0  0  0  0  0  0  0  0
    6.8590   46.8990   51.8730 C   0  0  0  0  0  0  0  0  0  0  0  0
    6.4420   45.8640   51.0330 C   0  0  0  0  0  0  0  0  0  0  0  0
    7.3840   44.9850   50.4710 C   0  0  0  0  0  0  0  0  0  0  0  0
    6.9350   43.8490   49.5820 C   0  0  0  0  0  0  0  0  0  0  0  0
    6.0060   42.8440   50.3060 C   0  0  2  0  0  0  0  0  0  0  0  0
    6.0800   41.4290   49.6980 C   0  0  0  0  0  0  0  0  0  0  0  0
    7.2760   40.7880   50.0560 O   0  0  0  0  0  0  0  0  0  0  0  0
    4.6190   43.3240   50.3000 N   0  0  0  0  0  0  0  0  0  0  0  0
    3.6530   42.8940   51.2700 C   0  0  0  0  0  0  0  0  0  0  0  0
    3.9130   41.9200   52.0270 O   0  0  0  0  0  0  0  0  0  0  0  0
    2.3770   43.6200   51.4200 C   0  0  0  0  0  0  0  0  0  0  0  0
    1.1860   43.3010   50.7970 C   0  0  0  0  0  0  0  0  0  0  0  0
    0.2970   44.2770   51.0510 N   0  0  0  0  0  0  0  0  0  0  0  0
    0.8540   45.2080   51.8060 N   0  0  0  0  0  0  0  0  0  0  0  0
    2.1260   44.8340   52.0540 C   0  0  0  0  0  0  0  0  0  0  0  0
    3.0410   45.6240   52.9030 C   0  0  0  0  0  0  0  0  0  0  0  0
    3.0670   47.0230   52.7860 C   0  0  0  0  0  0  0  0  0  0  0  0
    3.9120   47.7830   53.6000 C   0  0  0  0  0  0  0  0  0  0  0  0
    4.7270   47.1550   54.5460 C   0  0  0  0  0  0  0  0  0  0  0  0
    4.6920   45.7640   54.6850 C   0  0  0  0  0  0  0  0  0  0  0  0
    5.7000   44.9770   55.8870 Cl  0  0  0  0  0  0  0  0  0  0  0  0
    3.8470   45.0010   53.8730 C   0  0  0  0  0  0  0  0  0  0  0  0
    8.7470   45.1610   50.7630 C   0  0  0  0  0  0  0  0  0  0  0  0
   10.7850   46.4014   53.0021 H   0  0  0  0  0  0  0  0  0  0  0  0
   11.1991   45.5506   51.4752 H   0  0  0  0  0  0  0  0  0  0  0  0
   10.9611   47.3311   51.4752 H   0  0  0  0  0  0  0  0  0  0  0  0
    8.5363   47.8830   52.8266 H   0  0  0  0  0  0  0  0  0  0  0  0
    6.1172   47.5876   52.3038 H   0  0  0  0  0  0  0  0  0  0  0  0
    5.3724   45.7362   50.8104 H   0  0  0  0  0  0  0  0  0  0  0  0
    6.3934   44.2700   48.7221 H   0  0  0  0  0  0  0  0  0  0  0  0
    7.8356   43.2991   49.2713 H   0  0  0  0  0  0  0  0  0  0  0  0
    6.3621   42.7740   51.3444 H   0  0  0  0  0  0  0  0  0  0  0  0
    5.2300   40.8351   50.0653 H   0  0  0  0  0  0  0  0  0  0  0  0
    6.0448   41.5170   48.6021 H   0  0  0  0  0  0  0  0  0  0  0  0
    7.0560   40.1770   50.8060 H   0  0  0  0  0  0  0  0  0  0  0  0
    4.3220   44.0110   49.5690 H   0  0  0  0  0  0  0  0  0  0  0  0
    0.9969   42.4002   50.1946 H   0  0  0  0  0  0  0  0  0  0  0  0
   -0.6850   44.3170   50.6980 H   0  0  0  0  0  0  0  0  0  0  0  0
    2.4196   47.5231   52.0506 H   0  0  0  0  0  0  0  0  0  0  0  0
    3.9355   48.8778   53.4958 H   0  0  0  0  0  0  0  0  0  0  0  0
    5.3957   47.7547   55.1809 H   0  0  0  0  0  0  0  0  0  0  0  0
    3.8124   43.9082   53.9934 H   0  0  0  0  0  0  0  0  0  0  0  0
    9.4924   44.4904   50.3106 H   0  0  0  0  0  0  0  0  0  0  0  0
  1  2  1  0
  2  3  2  0
  3  4  1  0
  4  5  2  0
  5  6  1  0
  6  7  1  0
  7  8  1  0
  8  9  1  0
  9 10  1  0
  8 11  1  0
 11 12  1  0
 12 13  2  0
 12 14  1  0
 14 15  2  0
 15 16  1  0
 16 17  1  0
 17 18  2  0
 18 19  1  0
 19 20  2  0
 20 21  1  0
 21 22  2  0
 22 23  1  0
 23 24  1  0
 23 25  2  0
  6 26  2  0
 26  2  1  0
 18 14  1  0
 25 19  1  0
  1 27  1  0
  1 28  1  0
  1 29  1  0
  3 30  1  0
  4 31  1  0
  5 32  1  0
  7 33  1  0
  7 34  1  0
  8 35  1  1
  9 36  1  0
  9 37  1  0
 10 38  1  0
 11 39  1  0
 15 40  1  0
 16 41  1  0
 20 42  1  0
 21 43  1  0
 22 44  1  0
 25 45  1  0
 26 46  1  0
M  END
>  <meeko>  (2) 
{"is_sidechain": [false], "free_energy": -8.938, "intermolecular_energy": -12.064, "internal_energy": -1.189}

$$$$
ligand_29_conformer_4_docked
     RDKit          3D

 46 48  0  0  0  0  0  0  0  0999 V2000
   10.6240   47.4410   55.5100 C   0  0  0  0  0  0  0  0  0  0  0  0
    9.7210   47.2310   54.3310 C   0  0  0  0  0  0  0  0  0  0  0  0
   10.2380   46.7440   53.1210 C   0  0  0  0  0  0  0  0  0  0  0  0
    9.3900   46.5190   52.0340 C   0  0  0  0  0  0  0  0  0  0  0  0
    8.0210   46.7710   52.1470 C   0  0  0  0  0  0  0  0  0  0  0  0
    7.4850   47.2460   53.3560 C   0  0  0  0  0  0  0  0  0  0  0  0
    6.0090   47.5440   53.4740 C   0  0  0  0  0  0  0  0  0  0  0  0
    5.2060   46.3850   54.1140 C   0  0  2  0  0  0  0  0  0  0  0  0
    6.1090   45.3900   54.8720 C   0  0  0  0  0  0  0  0  0  0  0  0
    5.4440   44.8520   55.9830 O   0  0  0  0  0  0  0  0  0  0  0  0
    4.4180   45.6790   53.0980 N   0  0  0  0  0  0  0  0  0  0  0  0
    3.1420   45.0880   53.3890 C   0  0  0  0  0  0  0  0  0  0  0  0
    2.7630   44.9690   54.5850 O   0  0  0  0  0  0  0  0  0  0  0  0
    2.2520   44.6640   52.2900 C   0  0  0  0  0  0  0  0  0  0  0  0
    0.9110   44.9690   52.1710 C   0  0  0  0  0  0  0  0  0  0  0  0
    0.4070   44.2790   51.1340 N   0  0  0  0  0  0  0  0  0  0  0  0
    1.3550   43.5440   50.5780 N   0  0  0  0  0  0  0  0  0  0  0  0
    2.5000   43.7610   51.2590 C   0  0  0  0  0  0  0  0  0  0  0  0
    3.7830   43.1290   50.8910 C   0  0  0  0  0  0  0  0  0  0  0  0
    3.8810   41.7290   50.8400 C   0  0  0  0  0  0  0  0  0  0  0  0
    5.0840   41.1190   50.4700 C   0  0  0  0  0  0  0  0  0  0  0  0
    6.1920   41.9010   50.1340 C   0  0  0  0  0  0  0  0  0  0  0  0
    6.0970   43.2950   50.1590 C   0  0  0  0  0  0  0  0  0  0  0  0
    7.4830   44.2770   49.7170 Cl  0  0  0  0  0  0  0  0  0  0  0  0
    4.8950   43.9090   50.5280 C   0  0  0  0  0  0  0  0  0  0  0  0
    8.3410   47.4610   54.4490 C   0  0  0  0  0  0  0  0  0  0  0  0
   10.0507   47.3077   56.4393 H   0  0  0  0  0  0  0  0  0  0  0  0
   11.4452   46.7099   55.4777 H   0  0  0  0  0  0  0  0  0  0  0  0
   11.0383   48.4595   55.4777 H   0  0  0  0  0  0  0  0  0  0  0  0
   11.3147   46.5387   53.0280 H   0  0  0  0  0  0  0  0  0  0  0  0
    9.8018   46.1422   51.0861 H   0  0  0  0  0  0  0  0  0  0  0  0
    7.3593   46.5969   51.2857 H   0  0  0  0  0  0  0  0  0  0  0  0
    5.8817   48.4431   54.0948 H   0  0  0  0  0  0  0  0  0  0  0  0
    5.6207   47.6895   52.4552 H   0  0  0  0  0  0  0  0  0  0  0  0
    4.5265   46.8380   54.8510 H   0  0  0  0  0  0  0  0  0  0  0  0
    6.3930   44.5728   54.1926 H   0  0  0  0  0  0  0  0  0  0  0  0
    7.0020   45.9267   55.2248 H   0  0  0  0  0  0  0  0  0  0  0  0
    5.9160   44.0100   56.2160 H   0  0  0  0  0  0  0  0  0  0  0  0
    4.7900   45.6090   52.1230 H   0  0  0  0  0  0  0  0  0  0  0  0
    0.3495   45.6605   52.8164 H   0  0  0  0  0  0  0  0  0  0  0  0
   -0.5870   44.2950   50.8120 H   0  0  0  0  0  0  0  0  0  0  0  0
    3.0078   41.1094   51.0922 H   0  0  0  0  0  0  0  0  0  0  0  0
    5.1579   40.0218   50.4435 H   0  0  0  0  0  0  0  0  0  0  0  0
    7.1392   41.4193   49.8498 H   0  0  0  0  0  0  0  0  0  0  0  0
    4.8198   45.0064   50.5341 H   0  0  0  0  0  0  0  0  0  0  0  0
    7.9265   47.8125   55.4054 H   0  0  0  0  0  0  0  0  0  0  0  0
  1  2  1  0
  2  3  2  0
  3  4  1  0
  4  5  2  0
  5  6  1  0
  6  7  1  0
  7  8  1  0
  8  9  1  0
  9 10  1  0
  8 11  1  0
 11 12  1  0
 12 13  2  0
 12 14  1  0
 14 15  2  0
 15 16  1  0
 16 17  1  0
 17 18  2  0
 18 19  1  0
 19 20  2  0
 20 21  1  0
 21 22  2  0
 22 23  1  0
 23 24  1  0
 23 25  2  0
  6 26  2  0
 26  2  1  0
 18 14  1  0
 25 19  1  0
  1 27  1  0
  1 28  1  0
  1 29  1  0
  3 30  1  0
  4 31  1  0
  5 32  1  0
  7 33  1  0
  7 34  1  0
  8 35  1  1
  9 36  1  0
  9 37  1  0
 10 38  1  0
 11 39  1  0
 15 40  1  0
 16 41  1  0
 20 42  1  0
 21 43  1  0
 22 44  1  0
 25 45  1  0
 26 46  1  0
M  END
>  <meeko>  (3) 
{"is_sidechain": [false], "free_energy": -8.863, "intermolecular_energy": -12.628, "internal_energy": -0.522}

$$$$
ligand_29_conformer_4_docked
     RDKit          3D

 46 48  0  0  0  0  0  0  0  0999 V2000
    1.5360   44.0710   54.5230 C   0  0  0  0  0  0  0  0  0  0  0  0
    1.6860   43.5530   53.1240 C   0  0  0  0  0  0  0  0  0  0  0  0
    0.6040   43.5990   52.2320 C   0  0  0  0  0  0  0  0  0  0  0  0
    0.7550   43.1460   50.9200 C   0  0  0  0  0  0  0  0  0  0  0  0
    1.9860   42.6500   50.4840 C   0  0  0  0  0  0  0  0  0  0  0  0
    3.0840   42.6100   51.3610 C   0  0  0  0  0  0  0  0  0  0  0  0
    4.4100   42.0500   50.9020 C   0  0  0  0  0  0  0  0  0  0  0  0
    5.4130   43.1470   50.4710 C   0  0  2  0  0  0  0  0  0  0  0  0
    6.8060   42.5750   50.1380 C   0  0  0  0  0  0  0  0  0  0  0  0
    6.7590   41.1800   50.0070 O   0  0  0  0  0  0  0  0  0  0  0  0
    5.5270   44.1800   51.5080 N   0  0  0  0  0  0  0  0  0  0  0  0
    5.0440   45.5180   51.3160 C   0  0  0  0  0  0  0  0  0  0  0  0
    4.7060   45.9050   50.1650 O   0  0  0  0  0  0  0  0  0  0  0  0
    4.8970   46.4280   52.4690 C   0  0  0  0  0  0  0  0  0  0  0  0
    3.7040   46.8910   52.9880 C   0  0  0  0  0  0  0  0  0  0  0  0
    3.9770   47.8150   53.9250 N   0  0  0  0  0  0  0  0  0  0  0  0
    5.2850   47.9710   54.0360 N   0  0  0  0  0  0  0  0  0  0  0  0
    5.8780   47.1320   53.1630 C   0  0  0  0  0  0  0  0  0  0  0  0
    7.3450   47.0100   53.0390 C   0  0  0  0  0  0  0  0  0  0  0  0
    7.9240   46.8140   51.7750 C   0  0  0  0  0  0  0  0  0  0  0  0
    9.3130   46.7220   51.6420 C   0  0  0  0  0  0  0  0  0  0  0  0
   10.1340   46.8380   52.7660 C   0  0  0  0  0  0  0  0  0  0  0  0
    9.5690   47.0570   54.0260 C   0  0  0  0  0  0  0  0  0  0  0  0
   10.6010   47.2240   55.4340 Cl  0  0  0  0  0  0  0  0  0  0  0  0
    8.1790   47.1510   54.1620 C   0  0  0  0  0  0  0  0  0  0  0  0
    2.9290   43.0760   52.6770 C   0  0  0  0  0  0  0  0  0  0  0  0
    1.7685   43.2682   55.2381 H   0  0  0  0  0  0  0  0  0  0  0  0
    2.2274   44.9122   54.6786 H   0  0  0  0  0  0  0  0  0  0  0  0
    0.5020   44.4126   54.6786 H   0  0  0  0  0  0  0  0  0  0  0  0
   -0.3666   43.9933   52.5675 H   0  0  0  0  0  0  0  0  0  0  0  0
   -0.0986   43.1798   50.2270 H   0  0  0  0  0  0  0  0  0  0  0  0
    2.0966   42.2894   49.4507 H   0  0  0  0  0  0  0  0  0  0  0  0
    4.8529   41.4753   51.7288 H   0  0  0  0  0  0  0  0  0  0  0  0
    4.2141   41.4193   50.0223 H   0  0  0  0  0  0  0  0  0  0  0  0
    5.0144   43.5975   49.5500 H   0  0  0  0  0  0  0  0  0  0  0  0
    7.1580   43.0133   49.1925 H   0  0  0  0  0  0  0  0  0  0  0  0
    7.4932   42.8265   50.9593 H   0  0  0  0  0  0  0  0  0  0  0  0
    7.3370   40.9470   49.2340 H   0  0  0  0  0  0  0  0  0  0  0  0
    5.9660   43.9340   52.4250 H   0  0  0  0  0  0  0  0  0  0  0  0
    2.6997   46.5595   52.6855 H   0  0  0  0  0  0  0  0  0  0  0  0
    3.2730   48.3530   54.4790 H   0  0  0  0  0  0  0  0  0  0  0  0
    7.2822   46.7325   50.8854 H   0  0  0  0  0  0  0  0  0  0  0  0
    9.7599   46.5580   50.6503 H   0  0  0  0  0  0  0  0  0  0  0  0
   11.2259   46.7570   52.6598 H   0  0  0  0  0  0  0  0  0  0  0  0
    7.7371   47.3361   55.1522 H   0  0  0  0  0  0  0  0  0  0  0  0
    3.7886   43.0672   53.3634 H   0  0  0  0  0  0  0  0  0  0  0  0
  1  2  1  0
  2  3  2  0
  3  4  1  0
  4  5  2  0
  5  6  1  0
  6  7  1  0
  7  8  1  0
  8  9  1  0
  9 10  1  0
  8 11  1  0
 11 12  1  0
 12 13  2  0
 12 14  1  0
 14 15  2  0
 15 16  1  0
 16 17  1  0
 17 18  2  0
 18 19  1  0
 19 20  2  0
 20 21  1  0
 21 22  2  0
 22 23  1  0
 23 24  1  0
 23 25  2  0
  6 26  2  0
 26  2  1  0
 18 14  1  0
 25 19  1  0
  1 27  1  0
  1 28  1  0
  1 29  1  0
  3 30  1  0
  4 31  1  0
  5 32  1  0
  7 33  1  0
  7 34  1  0
  8 35  1  6
  9 36  1  0
  9 37  1  0
 10 38  1  0
 11 39  1  0
 15 40  1  0
 16 41  1  0
 20 42  1  0
 21 43  1  0
 22 44  1  0
 25 45  1  0
 26 46  1  0
M  END
>  <meeko>  (4) 
{"is_sidechain": [false], "free_energy": -8.804, "intermolecular_energy": -12.54, "internal_energy": -0.529}

$$$$
ligand_29_conformer_4_docked
     RDKit          3D

 46 48  0  0  0  0  0  0  0  0999 V2000
   10.1380   47.3880   54.8090 C   0  0  0  0  0  0  0  0  0  0  0  0
    9.0530   47.0780   53.8210 C   0  0  0  0  0  0  0  0  0  0  0  0
    9.1080   47.6030   52.5210 C   0  0  0  0  0  0  0  0  0  0  0  0
    8.1140   47.2870   51.5920 C   0  0  0  0  0  0  0  0  0  0  0  0
    7.0620   46.4410   51.9500 C   0  0  0  0  0  0  0  0  0  0  0  0
    6.9990   45.8950   53.2430 C   0  0  0  0  0  0  0  0  0  0  0  0
    5.8490   45.0000   53.6420 C   0  0  0  0  0  0  0  0  0  0  0  0
    4.5010   45.7550   53.7420 C   0  0  2  0  0  0  0  0  0  0  0  0
    4.5320   46.8810   54.7960 C   0  0  0  0  0  0  0  0  0  0  0  0
    4.5760   48.1420   54.1840 O   0  0  0  0  0  0  0  0  0  0  0  0
    3.4070   44.8210   54.0330 N   0  0  0  0  0  0  0  0  0  0  0  0
    2.1280   44.9110   53.3860 C   0  0  0  0  0  0  0  0  0  0  0  0
    1.8370   45.9340   52.7090 O   0  0  0  0  0  0  0  0  0  0  0  0
    1.1720   43.7900   53.4720 C   0  0  0  0  0  0  0  0  0  0  0  0
    1.1830   42.6540   52.6860 C   0  0  0  0  0  0  0  0  0  0  0  0
    0.0730   41.9430   52.9470 N   0  0  0  0  0  0  0  0  0  0  0  0
   -0.6530   42.5630   53.8620 N   0  0  0  0  0  0  0  0  0  0  0  0
   -0.0050   43.6940   54.2090 C   0  0  0  0  0  0  0  0  0  0  0  0
   -0.5110   44.6220   55.2400 C   0  0  0  0  0  0  0  0  0  0  0  0
   -1.8850   44.9030   55.3120 C   0  0  0  0  0  0  0  0  0  0  0  0
   -2.3790   45.7620   56.2990 C   0  0  0  0  0  0  0  0  0  0  0  0
   -1.5090   46.3350   57.2290 C   0  0  0  0  0  0  0  0  0  0  0  0
   -0.1430   46.0440   57.1810 C   0  0  0  0  0  0  0  0  0  0  0  0
    0.9470   46.7470   58.3630 Cl  0  0  0  0  0  0  0  0  0  0  0  0
    0.3550   45.1840   56.1950 C   0  0  0  0  0  0  0  0  0  0  0  0
    8.0080   46.2080   54.1700 C   0  0  0  0  0  0  0  0  0  0  0  0
    9.7464   47.2761   55.8308 H   0  0  0  0  0  0  0  0  0  0  0  0
   10.9784   46.6940   54.6604 H   0  0  0  0  0  0  0  0  0  0  0  0
   10.4850   48.4212   54.6604 H   0  0  0  0  0  0  0  0  0  0  0  0
    9.9370   48.2659   52.2324 H   0  0  0  0  0  0  0  0  0  0  0  0
    8.1599   47.7055   50.5758 H   0  0  0  0  0  0  0  0  0  0  0  0
    6.2788   46.2009   51.2159 H   0  0  0  0  0  0  0  0  0  0  0  0
    5.7490   44.2022   52.8913 H   0  0  0  0  0  0  0  0  0  0  0  0
    6.0759   44.5983   54.6406 H   0  0  0  0  0  0  0  0  0  0  0  0
    4.3270   46.2270   52.7638 H   0  0  0  0  0  0  0  0  0  0  0  0
    3.6280   46.8151   55.4193 H   0  0  0  0  0  0  0  0  0  0  0  0
    5.4350   46.7591   55.4122 H   0  0  0  0  0  0  0  0  0  0  0  0
    5.4900   48.5000   54.3350 H   0  0  0  0  0  0  0  0  0  0  0  0
    3.5620   44.0560   54.7290 H   0  0  0  0  0  0  0  0  0  0  0  0
    1.9685   42.3778   51.9672 H   0  0  0  0  0  0  0  0  0  0  0  0
   -0.2000   41.0440   52.4920 H   0  0  0  0  0  0  0  0  0  0  0  0
   -2.5760   44.4454   54.5887 H   0  0  0  0  0  0  0  0  0  0  0  0
   -3.4549   45.9867   56.3428 H   0  0  0  0  0  0  0  0  0  0  0  0
   -1.8992   47.0158   57.9998 H   0  0  0  0  0  0  0  0  0  0  0  0
    1.4287   44.9467   56.1671 H   0  0  0  0  0  0  0  0  0  0  0  0
    7.9786   45.7675   55.1775 H   0  0  0  0  0  0  0  0  0  0  0  0
  1  2  1  0
  2  3  2  0
  3  4  1  0
  4  5  2  0
  5  6  1  0
  6  7  1  0
  7  8  1  0
  8  9  1  0
  9 10  1  0
  8 11  1  0
 11 12  1  0
 12 13  2  0
 12 14  1  0
 14 15  2  0
 15 16  1  0
 16 17  1  0
 17 18  2  0
 18 19  1  0
 19 20  2  0
 20 21  1  0
 21 22  2  0
 22 23  1  0
 23 24  1  0
 23 25  2  0
  6 26  2  0
 26  2  1  0
 18 14  1  0
 25 19  1  0
  1 27  1  0
  1 28  1  0
  1 29  1  0
  3 30  1  0
  4 31  1  0
  5 32  1  0
  7 33  1  0
  7 34  1  0
  8 35  1  6
  9 36  1  0
  9 37  1  0
 10 38  1  0
 11 39  1  0
 15 40  1  0
 16 41  1  0
 20 42  1  0
 21 43  1  0
 22 44  1  0
 25 45  1  0
 26 46  1  0
M  END
>  <meeko>  (5) 
{"is_sidechain": [false], "free_energy": -8.487, "intermolecular_energy": -11.949, "internal_energy": -0.682}

$$$$
