MODEL 1
REMARK VINA RESULT:    -9.077      0.000      0.000
REMARK INTER + INTRA:         -11.727
REMARK INTER:                 -11.199
REMARK INTRA:                  -0.528
REMARK UNBOUND:                -0.528
REMARK SMILES c1ccc(Oc2ccnc(N[C@H]3CC[C@H]4OCC[C@H]4C3)n2)cc1
REMARK SMILES IDX 6 1 7 2 8 3 9 4 10 5 21 6 5 7 4 8 1 9 2 10 23 11 3 12 22 13
REMARK SMILES IDX 11 14 12 16 13 17 20 18 14 19 19 20 15 21 18 22 16 23 17 24
REMARK H PARENT 11 15
ROOT
ATOM      1  C   UNL     1       5.021  46.888  53.675  1.00  0.00     0.224 A 
ATOM      2  C   UNL     1       4.124  47.787  53.095  1.00  0.00     0.089 A 
ATOM      3  C   UNL     1       2.925  47.294  52.581  1.00  0.00     0.121 A 
ATOM      4  N   UNL     1       2.657  45.965  52.640  1.00  0.00    -0.221 NA
ATOM      5  C   UNL     1       3.543  45.095  53.195  1.00  0.00     0.226 A 
ATOM      6  N   UNL     1       4.715  45.562  53.705  1.00  0.00    -0.177 NA
ENDROOT
BRANCH   1   7
ATOM      7  O   UNL     1       6.237  47.361  54.182  1.00  0.00    -0.439 OA
BRANCH   7   8
ATOM      8  C   UNL     1       7.484  47.168  53.572  1.00  0.00     0.129 A 
ATOM      9  C   UNL     1      10.013  46.777  52.418  1.00  0.00     0.000 A 
ATOM     10  C   UNL     1       8.863  46.665  51.632  1.00  0.00     0.004 A 
ATOM     11  C   UNL     1       9.901  47.066  53.782  1.00  0.00     0.004 A 
ATOM     12  C   UNL     1       7.601  46.851  52.206  1.00  0.00     0.047 A 
ATOM     13  C   UNL     1       8.640  47.254  54.357  1.00  0.00     0.047 A 
ENDBRANCH   7   8
ENDBRANCH   1   7
BRANCH   5  14
ATOM     14  N   UNL     1       3.237  43.695  53.226  1.00  0.00    -0.351 N 
ATOM     15  H   UNL     1       2.473  43.377  53.865  1.00  0.00     0.163 HD
BRANCH  14  16
ATOM     16  C   UNL     1       3.897  42.723  52.346  1.00  0.00     0.082 C 
ATOM     17  C   UNL     1       2.844  41.928  51.527  1.00  0.00     0.027 C 
ATOM     18  C   UNL     1       4.911  43.433  51.432  1.00  0.00     0.031 C 
ATOM     19  C   UNL     1       3.247  41.679  50.063  1.00  0.00     0.034 C 
ATOM     20  C   UNL     1       5.651  42.399  50.555  1.00  0.00     0.022 C 
ATOM     21  C   UNL     1       4.737  41.328  49.935  1.00  0.00     0.121 C 
ATOM     22  C   UNL     1       6.329  43.015  49.361  1.00  0.00     0.035 C 
ATOM     23  O   UNL     1       5.063  41.171  48.570  1.00  0.00    -0.378 OA
ATOM     24  C   UNL     1       6.231  41.918  48.326  1.00  0.00     0.161 C 
ENDBRANCH  14  16
ENDBRANCH   5  14
TORSDOF 4
ENDMDL
MODEL 2
REMARK VINA RESULT:    -9.007      2.248      4.859
REMARK INTER + INTRA:         -11.641
REMARK INTER:                 -11.379
REMARK INTRA:                  -0.262
REMARK UNBOUND:                -0.528
REMARK SMILES c1ccc(Oc2ccnc(N[C@H]3CC[C@H]4OCC[C@H]4C3)n2)cc1
REMARK SMILES IDX 6 1 7 2 8 3 9 4 10 5 21 6 5 7 4 8 1 9 2 10 23 11 3 12 22 13
REMARK SMILES IDX 11 14 12 16 13 17 20 18 14 19 19 20 15 21 18 22 16 23 17 24
REMARK H PARENT 11 15
ROOT
ATOM      1  C   UNL     1       8.042  46.816  52.283  1.00  0.00     0.224 A 
ATOM      2  C   UNL     1       9.202  47.203  52.956  1.00  0.00     0.089 A 
ATOM      3  C   UNL     1       9.108  47.547  54.303  1.00  0.00     0.121 A 
ATOM      4  N   UNL     1       7.904  47.515  54.930  1.00  0.00    -0.221 NA
ATOM      5  C   UNL     1       6.776  47.151  54.262  1.00  0.00     0.226 A 
ATOM      6  N   UNL     1       6.854  46.807  52.947  1.00  0.00    -0.177 NA
ENDROOT
BRANCH   1   7
ATOM      7  O   UNL     1       8.114  46.482  50.925  1.00  0.00    -0.439 OA
BRANCH   7   8
ATOM      8  C   UNL     1       7.604  45.302  50.366  1.00  0.00     0.129 A 
ATOM      9  C   UNL     1       6.652  42.920  49.228  1.00  0.00     0.000 A 
ATOM     10  C   UNL     1       5.826  43.667  50.071  1.00  0.00     0.004 A 
ATOM     11  C   UNL     1       7.956  43.350  48.966  1.00  0.00     0.004 A 
ATOM     12  C   UNL     1       6.301  44.851  50.647  1.00  0.00     0.047 A 
ATOM     13  C   UNL     1       8.432  44.534  49.539  1.00  0.00     0.047 A 
ENDBRANCH   7   8
ENDBRANCH   1   7
BRANCH   5  14
ATOM     14  N   UNL     1       5.517  47.145  54.947  1.00  0.00    -0.351 N 
ATOM     15  H   UNL     1       5.485  47.549  55.911  1.00  0.00     0.163 HD
BRANCH  14  16
ATOM     16  C   UNL     1       4.278  46.671  54.318  1.00  0.00     0.082 C 
ATOM     17  C   UNL     1       3.893  47.582  53.121  1.00  0.00     0.027 C 
ATOM     18  C   UNL     1       4.424  45.201  53.891  1.00  0.00     0.031 C 
ATOM     19  C   UNL     1       3.356  46.816  51.898  1.00  0.00     0.034 C 
ATOM     20  C   UNL     1       3.098  44.687  53.290  1.00  0.00     0.022 C 
ATOM     21  C   UNL     1       2.426  45.666  52.313  1.00  0.00     0.121 C 
ATOM     22  C   UNL     1       3.265  43.434  52.473  1.00  0.00     0.035 C 
ATOM     23  O   UNL     1       2.014  44.963  51.159  1.00  0.00    -0.378 OA
ATOM     24  C   UNL     1       2.200  43.590  51.412  1.00  0.00     0.161 C 
ENDBRANCH  14  16
ENDBRANCH   5  14
TORSDOF 4
ENDMDL
MODEL 3
REMARK VINA RESULT:    -8.984      3.222      5.113
REMARK INTER + INTRA:         -11.613
REMARK INTER:                 -11.170
REMARK INTRA:                  -0.442
REMARK UNBOUND:                -0.528
REMARK SMILES c1ccc(Oc2ccnc(N[C@H]3CC[C@H]4OCC[C@H]4C3)n2)cc1
REMARK SMILES IDX 6 1 7 2 8 3 9 4 10 5 21 6 5 7 4 8 1 9 2 10 23 11 3 12 22 13
REMARK SMILES IDX 11 14 12 16 13 17 20 18 14 19 19 20 15 21 18 22 16 23 17 24
REMARK H PARENT 11 15
ROOT
ATOM      1  C   UNL     1       6.037  44.999  51.139  1.00  0.00     0.224 A 
ATOM      2  C   UNL     1       6.125  43.953  50.219  1.00  0.00     0.089 A 
ATOM      3  C   UNL     1       5.321  42.830  50.409  1.00  0.00     0.121 A 
ATOM      4  N   UNL     1       4.486  42.765  51.477  1.00  0.00    -0.221 NA
ATOM      5  C   UNL     1       4.418  43.784  52.376  1.00  0.00     0.226 A 
ATOM      6  N   UNL     1       5.193  44.889  52.200  1.00  0.00    -0.177 NA
ENDROOT
BRANCH   1   7
ATOM      7  O   UNL     1       6.847  46.129  50.974  1.00  0.00    -0.439 OA
BRANCH   7   8
ATOM      8  C   UNL     1       7.891  46.494  51.836  1.00  0.00     0.129 A 
ATOM      9  C   UNL     1      10.030  47.205  53.509  1.00  0.00     0.000 A 
ATOM     10  C   UNL     1       8.732  47.618  53.823  1.00  0.00     0.004 A 
ATOM     11  C   UNL     1      10.263  46.453  52.353  1.00  0.00     0.004 A 
ATOM     12  C   UNL     1       7.665  47.273  52.986  1.00  0.00     0.047 A 
ATOM     13  C   UNL     1       9.197  46.106  51.517  1.00  0.00     0.047 A 
ENDBRANCH   7   8
ENDBRANCH   1   7
BRANCH   5  14
ATOM     14  N   UNL     1       3.539  43.677  53.503  1.00  0.00    -0.351 N 
ATOM     15  H   UNL     1       3.964  43.461  54.434  1.00  0.00     0.163 HD
BRANCH  14  16
ATOM     16  C   UNL     1       2.097  43.935  53.408  1.00  0.00     0.082 C 
ATOM     17  C   UNL     1       1.351  42.672  52.897  1.00  0.00     0.027 C 
ATOM     18  C   UNL     1       1.548  44.409  54.765  1.00  0.00     0.031 C 
ATOM     19  C   UNL     1       0.011  42.407  53.605  1.00  0.00     0.034 C 
ATOM     20  C   UNL     1       0.046  44.743  54.643  1.00  0.00     0.022 C 
ATOM     21  C   UNL     1      -0.770  43.707  53.851  1.00  0.00     0.121 C 
ATOM     22  C   UNL     1      -0.657  44.799  55.974  1.00  0.00     0.035 C 
ATOM     23  O   UNL     1      -1.957  43.411  54.555  1.00  0.00    -0.378 OA
ATOM     24  C   UNL     1      -2.047  44.315  55.630  1.00  0.00     0.161 C 
ENDBRANCH  14  16
ENDBRANCH   5  14
TORSDOF 4
ENDMDL
MODEL 4
REMARK VINA RESULT:    -8.758      2.526      4.726
REMARK INTER + INTRA:         -11.333
REMARK INTER:                 -10.799
REMARK INTRA:                  -0.534
REMARK UNBOUND:                -0.528
REMARK SMILES c1ccc(Oc2ccnc(N[C@H]3CC[C@H]4OCC[C@H]4C3)n2)cc1
REMARK SMILES IDX 6 1 7 2 8 3 9 4 10 5 21 6 5 7 4 8 1 9 2 10 23 11 3 12 22 13
REMARK SMILES IDX 11 14 12 16 13 17 20 18 14 19 19 20 15 21 18 22 16 23 17 24
REMARK H PARENT 11 15
ROOT
ATOM      1  C   UNL     1       7.173  45.050  50.371  1.00  0.00     0.224 A 
ATOM      2  C   UNL     1       7.930  44.238  49.525  1.00  0.00     0.089 A 
ATOM      3  C   UNL     1       7.443  42.971  49.206  1.00  0.00     0.121 A 
ATOM      4  N   UNL     1       6.263  42.547  49.725  1.00  0.00    -0.221 NA
ATOM      5  C   UNL     1       5.539  43.340  50.560  1.00  0.00     0.226 A 
ATOM      6  N   UNL     1       6.000  44.582  50.877  1.00  0.00    -0.177 NA
ENDROOT
BRANCH   1   7
ATOM      7  O   UNL     1       7.653  46.320  50.716  1.00  0.00    -0.439 OA
BRANCH   7   8
ATOM      8  C   UNL     1       8.277  46.633  51.931  1.00  0.00     0.129 A 
ATOM      9  C   UNL     1       9.460  47.253  54.400  1.00  0.00     0.000 A 
ATOM     10  C   UNL     1      10.263  46.917  53.307  1.00  0.00     0.004 A 
ATOM     11  C   UNL     1       8.069  47.263  54.267  1.00  0.00     0.004 A 
ATOM     12  C   UNL     1       9.676  46.598  52.078  1.00  0.00     0.047 A 
ATOM     13  C   UNL     1       7.480  46.947  53.038  1.00  0.00     0.047 A 
ENDBRANCH   7   8
ENDBRANCH   1   7
BRANCH   5  14
ATOM     14  N   UNL     1       4.305  42.856  51.106  1.00  0.00    -0.351 N 
ATOM     15  H   UNL     1       4.168  41.820  51.155  1.00  0.00     0.163 HD
BRANCH  14  16
ATOM     16  C   UNL     1       3.283  43.749  51.662  1.00  0.00     0.082 C 
ATOM     17  C   UNL     1       1.871  43.119  51.514  1.00  0.00     0.027 C 
ATOM     18  C   UNL     1       3.605  44.084  53.128  1.00  0.00     0.031 C 
ATOM     19  C   UNL     1       0.961  43.327  52.737  1.00  0.00     0.034 C 
ATOM     20  C   UNL     1       2.564  45.077  53.689  1.00  0.00     0.022 C 
ATOM     21  C   UNL     1       1.108  44.740  53.322  1.00  0.00     0.121 C 
ATOM     22  C   UNL     1       2.544  45.127  55.193  1.00  0.00     0.035 C 
ATOM     23  O   UNL     1       0.299  44.853  54.474  1.00  0.00    -0.378 OA
ATOM     24  C   UNL     1       1.091  45.417  55.492  1.00  0.00     0.161 C 
ENDBRANCH  14  16
ENDBRANCH   5  14
TORSDOF 4
ENDMDL
MODEL 5
REMARK VINA RESULT:    -8.154      3.159      4.563
REMARK INTER + INTRA:         -10.588
REMARK INTER:                 -10.085
REMARK INTRA:                  -0.503
REMARK UNBOUND:                -0.528
REMARK SMILES c1ccc(Oc2ccnc(N[C@H]3CC[C@H]4OCC[C@H]4C3)n2)cc1
REMARK SMILES IDX 6 1 7 2 8 3 9 4 10 5 21 6 5 7 4 8 1 9 2 10 23 11 3 12 22 13
REMARK SMILES IDX 11 14 12 16 13 17 20 18 14 19 19 20 15 21 18 22 16 23 17 24
REMARK H PARENT 11 15
ROOT
ATOM      1  C   UNL     1       5.836  45.107  51.277  1.00  0.00     0.224 A 
ATOM      2  C   UNL     1       6.088  44.004  50.460  1.00  0.00     0.089 A 
ATOM      3  C   UNL     1       5.289  42.871  50.605  1.00  0.00     0.121 A 
ATOM      4  N   UNL     1       4.301  42.851  51.536  1.00  0.00    -0.221 NA
ATOM      5  C   UNL     1       4.072  43.927  52.337  1.00  0.00     0.226 A 
ATOM      6  N   UNL     1       4.841  45.042  52.202  1.00  0.00    -0.177 NA
ENDROOT
BRANCH   1   7
ATOM      7  O   UNL     1       6.637  46.250  51.156  1.00  0.00    -0.439 OA
BRANCH   7   8
ATOM      8  C   UNL     1       7.763  46.520  51.946  1.00  0.00     0.129 A 
ATOM      9  C   UNL     1       9.972  47.080  53.585  1.00  0.00     0.000 A 
ATOM     10  C   UNL     1      10.152  46.384  52.386  1.00  0.00     0.004 A 
ATOM     11  C   UNL     1       8.691  47.480  53.974  1.00  0.00     0.004 A 
ATOM     12  C   UNL     1       9.052  46.096  51.572  1.00  0.00     0.047 A 
ATOM     13  C   UNL     1       7.590  47.195  53.160  1.00  0.00     0.047 A 
ENDBRANCH   7   8
ENDBRANCH   1   7
BRANCH   5  14
ATOM     14  N   UNL     1       3.032  43.868  53.322  1.00  0.00    -0.351 N 
ATOM     15  H   UNL     1       3.202  44.341  54.239  1.00  0.00     0.163 HD
BRANCH  14  16
ATOM     16  C   UNL     1       1.730  43.245  53.059  1.00  0.00     0.082 C 
ATOM     17  C   UNL     1       0.809  43.363  54.304  1.00  0.00     0.027 C 
ATOM     18  C   UNL     1       1.081  43.868  51.811  1.00  0.00     0.031 C 
ATOM     19  C   UNL     1      -0.658  43.687  53.969  1.00  0.00     0.034 C 
ATOM     20  C   UNL     1      -0.257  43.165  51.499  1.00  0.00     0.022 C 
ATOM     21  C   UNL     1      -1.143  42.916  52.732  1.00  0.00     0.121 C 
ATOM     22  C   UNL     1      -1.146  43.964  50.584  1.00  0.00     0.035 C 
ATOM     23  O   UNL     1      -2.470  43.298  52.437  1.00  0.00    -0.378 OA
ATOM     24  C   UNL     1      -2.530  43.587  51.060  1.00  0.00     0.161 C 
ENDBRANCH  14  16
ENDBRANCH   5  14
TORSDOF 4
ENDMDL
