ligand_5_conformer_1_docked
     RDKit          3D

 36 38  0  0  0  0  0  0  0  0999 V2000
    5.8090   44.5530   54.6280 O   0  0  0  0  0  0  0  0  0  0  0  0
    5.1970   44.9720   53.6100 C   0  0  0  0  0  0  0  0  0  0  0  0
    5.8300   45.8850   52.6970 N   0  0  0  0  0  0  0  0  0  0  0  0
    7.2010   46.3030   52.7970 C   0  0  0  0  0  0  0  0  0  0  0  0
    8.0900   45.9890   51.7580 C   0  0  0  0  0  0  0  0  0  0  0  0
    9.4260   46.3930   51.8250 C   0  0  0  0  0  0  0  0  0  0  0  0
    9.8820   47.1300   52.9200 C   0  0  0  0  0  0  0  0  0  0  0  0
    8.9970   47.4870   53.9490 C   0  0  0  0  0  0  0  0  0  0  0  0
    9.4930   48.2750   55.1350 C   0  0  0  0  0  0  0  0  0  0  0  0
   10.6400   47.5510   55.8390 C   0  0  0  0  0  0  0  0  0  0  0  0
   10.7070   47.9460   57.1820 O   0  0  0  0  0  0  0  0  0  0  0  0
    7.6570   47.0700   53.8840 C   0  0  0  0  0  0  0  0  0  0  0  0
    3.8110   44.5350   53.3850 C   0  0  0  0  0  0  0  0  0  0  0  0
    3.3500   43.8430   52.2670 C   0  0  0  0  0  0  0  0  0  0  0  0
    2.0310   43.5680   52.3900 N   0  0  0  0  0  0  0  0  0  0  0  0
    1.6600   44.0950   53.5660 C   0  0  0  0  0  0  0  0  0  0  0  0
    0.4060   44.0880   54.0800 N   0  0  0  0  0  0  0  0  0  0  0  0
    0.1880   44.7160   55.2720 C   0  0  0  0  0  0  0  0  0  0  0  0
    1.2110   45.3620   55.9150 N   0  0  0  0  0  0  0  0  0  0  0  0
    2.4750   45.3830   55.3990 C   0  0  0  0  0  0  0  0  0  0  0  0
    3.4840   46.0910   56.0410 O   0  0  0  0  0  0  0  0  0  0  0  0
    2.7040   44.7030   54.2030 C   0  0  0  0  0  0  0  0  0  0  0  0
    5.2860   46.2120   51.8670 H   0  0  0  0  0  0  0  0  0  0  0  0
    7.7333   45.4216   50.8858 H   0  0  0  0  0  0  0  0  0  0  0  0
   10.1202   46.1299   51.0133 H   0  0  0  0  0  0  0  0  0  0  0  0
   10.9383   47.4317   52.9762 H   0  0  0  0  0  0  0  0  0  0  0  0
    9.8469   49.2578   54.7902 H   0  0  0  0  0  0  0  0  0  0  0  0
    8.6636   48.3899   55.8484 H   0  0  0  0  0  0  0  0  0  0  0  0
   10.4712   46.4653   55.7871 H   0  0  0  0  0  0  0  0  0  0  0  0
   11.5868   47.8069   55.3409 H   0  0  0  0  0  0  0  0  0  0  0  0
   11.6680   47.9170   57.4290 H   0  0  0  0  0  0  0  0  0  0  0  0
    6.9596   47.3453   54.6889 H   0  0  0  0  0  0  0  0  0  0  0  0
    3.9716   43.5598   51.4048 H   0  0  0  0  0  0  0  0  0  0  0  0
    1.4280   43.0620   51.7040 H   0  0  0  0  0  0  0  0  0  0  0  0
   -0.8166   44.7034   55.7199 H   0  0  0  0  0  0  0  0  0  0  0  0
    4.4590   45.9300   55.8150 H   0  0  0  0  0  0  0  0  0  0  0  0
  1  2  2  0
  2  3  1  0
  3  4  1  0
  4  5  2  0
  5  6  1  0
  6  7  2  0
  7  8  1  0
  8  9  1  0
  9 10  1  0
 10 11  1  0
  8 12  2  0
  2 13  1  0
 13 14  2  0
 14 15  1  0
 15 16  1  0
 16 17  2  0
 17 18  1  0
 18 19  2  0
 19 20  1  0
 20 21  1  0
 20 22  2  0
 12  4  1  0
 22 13  1  0
 22 16  1  0
  3 23  1  0
  5 24  1  0
  6 25  1  0
  7 26  1  0
  9 27  1  0
  9 28  1  0
 10 29  1  0
 10 30  1  0
 11 31  1  0
 12 32  1  0
 14 33  1  0
 15 34  1  0
 18 35  1  0
 21 36  1  0
M  END
>  <meeko>  (1) 
{"is_sidechain": [false], "free_energy": -8.518, "intermolecular_energy": -11.008, "internal_energy": -0.537}

$$$$
ligand_5_conformer_1_docked
     RDKit          3D

 36 38  0  0  0  0  0  0  0  0999 V2000
    5.5690   44.4510   53.3430 O   0  0  0  0  0  0  0  0  0  0  0  0
    5.0940   45.4160   52.6870 C   0  0  0  0  0  0  0  0  0  0  0  0
    5.9590   46.4160   52.1230 N   0  0  0  0  0  0  0  0  0  0  0  0
    7.3940   46.3530   52.1600 C   0  0  0  0  0  0  0  0  0  0  0  0
    8.0880   45.8860   51.0350 C   0  0  0  0  0  0  0  0  0  0  0  0
    9.4840   45.8250   51.0400 C   0  0  0  0  0  0  0  0  0  0  0  0
   10.2000   46.2490   52.1620 C   0  0  0  0  0  0  0  0  0  0  0  0
    9.5230   46.7570   53.2810 C   0  0  0  0  0  0  0  0  0  0  0  0
   10.2970   47.2050   54.4950 C   0  0  0  0  0  0  0  0  0  0  0  0
    9.4780   48.1740   55.3470 C   0  0  0  0  0  0  0  0  0  0  0  0
   10.1410   48.4330   56.5550 O   0  0  0  0  0  0  0  0  0  0  0  0
    8.1190   46.8060   53.2760 C   0  0  0  0  0  0  0  0  0  0  0  0
    3.6350   45.5190   52.5320 C   0  0  0  0  0  0  0  0  0  0  0  0
    2.8440   46.5740   52.9840 C   0  0  0  0  0  0  0  0  0  0  0  0
    1.5480   46.3710   52.6530 N   0  0  0  0  0  0  0  0  0  0  0  0
    1.5190   45.1930   52.0120 C   0  0  0  0  0  0  0  0  0  0  0  0
    0.4110   44.5750   51.5330 N   0  0  0  0  0  0  0  0  0  0  0  0
    0.5510   43.3500   50.9490 C   0  0  0  0  0  0  0  0  0  0  0  0
    1.7810   42.7500   50.8780 N   0  0  0  0  0  0  0  0  0  0  0  0
    2.9010   43.3610   51.3670 C   0  0  0  0  0  0  0  0  0  0  0  0
    4.1280   42.7090   51.3320 O   0  0  0  0  0  0  0  0  0  0  0  0
    2.7610   44.6320   51.9230 C   0  0  0  0  0  0  0  0  0  0  0  0
    5.5250   47.2020   51.5900 H   0  0  0  0  0  0  0  0  0  0  0  0
    7.5301   45.5656   50.1428 H   0  0  0  0  0  0  0  0  0  0  0  0
   10.0200   45.4424   50.1589 H   0  0  0  0  0  0  0  0  0  0  0  0
   11.2981   46.1844   52.1682 H   0  0  0  0  0  0  0  0  0  0  0  0
   10.5547   46.3241   55.1013 H   0  0  0  0  0  0  0  0  0  0  0  0
   11.2065   47.7227   54.1563 H   0  0  0  0  0  0  0  0  0  0  0  0
    9.3427   49.1169   54.7969 H   0  0  0  0  0  0  0  0  0  0  0  0
    8.4984   47.7229   55.5638 H   0  0  0  0  0  0  0  0  0  0  0  0
   10.2550   47.5530   57.0000 H   0  0  0  0  0  0  0  0  0  0  0  0
    7.5832   47.2016   54.1515 H   0  0  0  0  0  0  0  0  0  0  0  0
    3.2209   47.4494   53.5332 H   0  0  0  0  0  0  0  0  0  0  0  0
    0.7400   46.9970   52.8640 H   0  0  0  0  0  0  0  0  0  0  0  0
   -0.3300   42.8401   50.5320 H   0  0  0  0  0  0  0  0  0  0  0  0
    4.4570   42.1770   52.1290 H   0  0  0  0  0  0  0  0  0  0  0  0
  1  2  2  0
  2  3  1  0
  3  4  1  0
  4  5  2  0
  5  6  1  0
  6  7  2  0
  7  8  1  0
  8  9  1  0
  9 10  1  0
 10 11  1  0
  8 12  2  0
  2 13  1  0
 13 14  2  0
 14 15  1  0
 15 16  1  0
 16 17  2  0
 17 18  1  0
 18 19  2  0
 19 20  1  0
 20 21  1  0
 20 22  2  0
 12  4  1  0
 22 13  1  0
 22 16  1  0
  3 23  1  0
  5 24  1  0
  6 25  1  0
  7 26  1  0
  9 27  1  0
  9 28  1  0
 10 29  1  0
 10 30  1  0
 11 31  1  0
 12 32  1  0
 14 33  1  0
 15 34  1  0
 18 35  1  0
 21 36  1  0
M  END
>  <meeko>  (2) 
{"is_sidechain": [false], "free_energy": -8.386, "intermolecular_energy": -10.683, "internal_energy": -0.691}

$$$$
ligand_5_conformer_1_docked
     RDKit          3D

 36 38  0  0  0  0  0  0  0  0999 V2000
    4.7540   44.4760   54.2670 O   0  0  0  0  0  0  0  0  0  0  0  0
    3.9290   44.9090   53.4190 C   0  0  0  0  0  0  0  0  0  0  0  0
    4.3750   45.6650   52.2820 N   0  0  0  0  0  0  0  0  0  0  0  0
    5.7560   45.8970   51.9590 C   0  0  0  0  0  0  0  0  0  0  0  0
    6.3070   45.2820   50.8250 C   0  0  0  0  0  0  0  0  0  0  0  0
    7.6440   45.4990   50.4830 C   0  0  0  0  0  0  0  0  0  0  0  0
    8.4380   46.3470   51.2590 C   0  0  0  0  0  0  0  0  0  0  0  0
    7.8920   47.0010   52.3730 C   0  0  0  0  0  0  0  0  0  0  0  0
    8.7530   47.9080   53.2160 C   0  0  0  0  0  0  0  0  0  0  0  0
    9.9050   47.1370   53.8600 C   0  0  0  0  0  0  0  0  0  0  0  0
    9.9250   47.3660   55.2420 O   0  0  0  0  0  0  0  0  0  0  0  0
    6.5510   46.7720   52.7210 C   0  0  0  0  0  0  0  0  0  0  0  0
    2.4960   44.6520   53.6280 C   0  0  0  0  0  0  0  0  0  0  0  0
    1.6290   44.0880   52.6950 C   0  0  0  0  0  0  0  0  0  0  0  0
    0.3860   43.9630   53.2160 N   0  0  0  0  0  0  0  0  0  0  0  0
    0.4650   44.4580   54.4610 C   0  0  0  0  0  0  0  0  0  0  0  0
   -0.5610   44.5670   55.3390 N   0  0  0  0  0  0  0  0  0  0  0  0
   -0.3190   45.1430   56.5540 C   0  0  0  0  0  0  0  0  0  0  0  0
    0.9270   45.6230   56.8590 N   0  0  0  0  0  0  0  0  0  0  0  0
    1.9640   45.5270   55.9750 C   0  0  0  0  0  0  0  0  0  0  0  0
    3.2050   46.0710   56.2870 O   0  0  0  0  0  0  0  0  0  0  0  0
    1.7250   44.8980   54.7530 C   0  0  0  0  0  0  0  0  0  0  0  0
    3.6580   46.0100   51.6040 H   0  0  0  0  0  0  0  0  0  0  0  0
    5.6827   44.6251   50.2015 H   0  0  0  0  0  0  0  0  0  0  0  0
    8.0725   45.0011   49.6007 H   0  0  0  0  0  0  0  0  0  0  0  0
    9.4946   46.5022   50.9954 H   0  0  0  0  0  0  0  0  0  0  0  0
    9.1661   48.7041   52.5791 H   0  0  0  0  0  0  0  0  0  0  0  0
    8.1298   48.3345   54.0159 H   0  0  0  0  0  0  0  0  0  0  0  0
    9.7731   46.0613   53.6714 H   0  0  0  0  0  0  0  0  0  0  0  0
   10.8552   47.4798   53.4247 H   0  0  0  0  0  0  0  0  0  0  0  0
   10.6550   46.7990   55.6030 H   0  0  0  0  0  0  0  0  0  0  0  0
    6.1192   47.2805   53.5957 H   0  0  0  0  0  0  0  0  0  0  0  0
    1.9147   43.7862   51.6765 H   0  0  0  0  0  0  0  0  0  0  0  0
   -0.4590   43.5740   52.7420 H   0  0  0  0  0  0  0  0  0  0  0  0
   -1.1305   45.2218   57.2924 H   0  0  0  0  0  0  0  0  0  0  0  0
    3.4200   46.3710   57.2300 H   0  0  0  0  0  0  0  0  0  0  0  0
  1  2  2  0
  2  3  1  0
  3  4  1  0
  4  5  2  0
  5  6  1  0
  6  7  2  0
  7  8  1  0
  8  9  1  0
  9 10  1  0
 10 11  1  0
  8 12  2  0
  2 13  1  0
 13 14  2  0
 14 15  1  0
 15 16  1  0
 16 17  2  0
 17 18  1  0
 18 19  2  0
 19 20  1  0
 20 21  1  0
 20 22  2  0
 12  4  1  0
 22 13  1  0
 22 16  1  0
  3 23  1  0
  5 24  1  0
  6 25  1  0
  7 26  1  0
  9 27  1  0
  9 28  1  0
 10 29  1  0
 10 30  1  0
 11 31  1  0
 12 32  1  0
 14 33  1  0
 15 34  1  0
 18 35  1  0
 21 36  1  0
M  END
>  <meeko>  (3) 
{"is_sidechain": [false], "free_energy": -8.182, "intermolecular_energy": -10.51, "internal_energy": -0.601}

$$$$
ligand_5_conformer_1_docked
     RDKit          3D

 36 38  0  0  0  0  0  0  0  0999 V2000
    5.6310   44.5560   53.6240 O   0  0  0  0  0  0  0  0  0  0  0  0
    5.0840   45.5530   53.0830 C   0  0  0  0  0  0  0  0  0  0  0  0
    5.8280   46.7610   52.8520 N   0  0  0  0  0  0  0  0  0  0  0  0
    7.2360   46.9020   53.1050 C   0  0  0  0  0  0  0  0  0  0  0  0
    7.6590   47.5040   54.2990 C   0  0  0  0  0  0  0  0  0  0  0  0
    9.0210   47.6440   54.5760 C   0  0  0  0  0  0  0  0  0  0  0  0
    9.9730   47.1670   53.6710 C   0  0  0  0  0  0  0  0  0  0  0  0
    9.5670   46.5260   52.4910 C   0  0  0  0  0  0  0  0  0  0  0  0
   10.5950   46.0200   51.5120 C   0  0  0  0  0  0  0  0  0  0  0  0
    9.9650   45.0840   50.4810 C   0  0  0  0  0  0  0  0  0  0  0  0
   10.6710   43.8740   50.4330 O   0  0  0  0  0  0  0  0  0  0  0  0
    8.1960   46.3970   52.2110 C   0  0  0  0  0  0  0  0  0  0  0  0
    3.6620   45.4730   52.7190 C   0  0  0  0  0  0  0  0  0  0  0  0
    3.1320   45.7340   51.4570 C   0  0  0  0  0  0  0  0  0  0  0  0
    1.7930   45.5380   51.4540 N   0  0  0  0  0  0  0  0  0  0  0  0
    1.4790   45.1710   52.7060 C   0  0  0  0  0  0  0  0  0  0  0  0
    0.2320   44.9090   53.1680 N   0  0  0  0  0  0  0  0  0  0  0  0
    0.0810   44.5970   54.4890 C   0  0  0  0  0  0  0  0  0  0  0  0
    1.1640   44.5790   55.3270 N   0  0  0  0  0  0  0  0  0  0  0  0
    2.4220   44.8520   54.8720 C   0  0  0  0  0  0  0  0  0  0  0  0
    3.4970   44.8820   55.7530 O   0  0  0  0  0  0  0  0  0  0  0  0
    2.5800   45.1280   53.5140 C   0  0  0  0  0  0  0  0  0  0  0  0
    5.3360   47.5670   52.4050 H   0  0  0  0  0  0  0  0  0  0  0  0
    6.9138   47.8681   55.0216 H   0  0  0  0  0  0  0  0  0  0  0  0
    9.3447   48.1305   55.5080 H   0  0  0  0  0  0  0  0  0  0  0  0
   11.0445   47.2946   53.8846 H   0  0  0  0  0  0  0  0  0  0  0  0
   11.0454   46.8771   50.9901 H   0  0  0  0  0  0  0  0  0  0  0  0
   11.3595   45.4590   52.0695 H   0  0  0  0  0  0  0  0  0  0  0  0
    8.9202   44.8846   50.7614 H   0  0  0  0  0  0  0  0  0  0  0  0
   10.0026   45.5619   49.4909 H   0  0  0  0  0  0  0  0  0  0  0  0
   10.1440   43.2280   50.9710 H   0  0  0  0  0  0  0  0  0  0  0  0
    7.8719   45.8975   51.2861 H   0  0  0  0  0  0  0  0  0  0  0  0
    3.7202   46.0547   50.5846 H   0  0  0  0  0  0  0  0  0  0  0  0
    1.1410   45.6590   50.6480 H   0  0  0  0  0  0  0  0  0  0  0  0
   -0.9180   44.3584   54.8828 H   0  0  0  0  0  0  0  0  0  0  0  0
    3.6140   44.1620   56.4560 H   0  0  0  0  0  0  0  0  0  0  0  0
  1  2  2  0
  2  3  1  0
  3  4  1  0
  4  5  2  0
  5  6  1  0
  6  7  2  0
  7  8  1  0
  8  9  1  0
  9 10  1  0
 10 11  1  0
  8 12  2  0
  2 13  1  0
 13 14  2  0
 14 15  1  0
 15 16  1  0
 16 17  2  0
 17 18  1  0
 18 19  2  0
 19 20  1  0
 20 21  1  0
 20 22  2  0
 12  4  1  0
 22 13  1  0
 22 16  1  0
  3 23  1  0
  5 24  1  0
  6 25  1  0
  7 26  1  0
  9 27  1  0
  9 28  1  0
 10 29  1  0
 10 30  1  0
 11 31  1  0
 12 32  1  0
 14 33  1  0
 15 34  1  0
 18 35  1  0
 21 36  1  0
M  END
>  <meeko>  (4) 
{"is_sidechain": [false], "free_energy": -8.137, "intermolecular_energy": -10.348, "internal_energy": -0.704}

$$$$
ligand_5_conformer_1_docked
     RDKit          3D

 36 38  0  0  0  0  0  0  0  0999 V2000
    5.4990   44.5710   53.7140 O   0  0  0  0  0  0  0  0  0  0  0  0
    4.9660   45.5790   53.1790 C   0  0  0  0  0  0  0  0  0  0  0  0
    5.7330   46.7690   52.9320 N   0  0  0  0  0  0  0  0  0  0  0  0
    7.1470   46.8790   53.1620 C   0  0  0  0  0  0  0  0  0  0  0  0
    7.6040   47.4150   54.3740 C   0  0  0  0  0  0  0  0  0  0  0  0
    8.9730   47.5230   54.6280 C   0  0  0  0  0  0  0  0  0  0  0  0
    9.8990   47.0800   53.6810 C   0  0  0  0  0  0  0  0  0  0  0  0
    9.4600   46.5040   52.4790 C   0  0  0  0  0  0  0  0  0  0  0  0
   10.4600   46.0360   51.4530 C   0  0  0  0  0  0  0  0  0  0  0  0
    9.8450   44.9990   50.5140 C   0  0  0  0  0  0  0  0  0  0  0  0
   10.6600   43.8600   50.4530 O   0  0  0  0  0  0  0  0  0  0  0  0
    8.0820   46.4080   52.2230 C   0  0  0  0  0  0  0  0  0  0  0  0
    3.5360   45.5290   52.8390 C   0  0  0  0  0  0  0  0  0  0  0  0
    2.5720   46.4450   53.2550 C   0  0  0  0  0  0  0  0  0  0  0  0
    1.3620   46.1260   52.7400 N   0  0  0  0  0  0  0  0  0  0  0  0
    1.5580   45.0120   52.0190 C   0  0  0  0  0  0  0  0  0  0  0  0
    0.6030   44.3160   51.3540 N   0  0  0  0  0  0  0  0  0  0  0  0
    0.9650   43.1700   50.7080 C   0  0  0  0  0  0  0  0  0  0  0  0
    2.2590   42.7220   50.7590 N   0  0  0  0  0  0  0  0  0  0  0  0
    3.2250   43.4110   51.4350 C   0  0  0  0  0  0  0  0  0  0  0  0
    4.5180   42.9070   51.5190 O   0  0  0  0  0  0  0  0  0  0  0  0
    2.8610   44.6050   52.0570 C   0  0  0  0  0  0  0  0  0  0  0  0
    5.2520   47.5850   52.4910 H   0  0  0  0  0  0  0  0  0  0  0  0
    6.8797   47.7527   55.1298 H   0  0  0  0  0  0  0  0  0  0  0  0
    9.3227   47.9579   55.5759 H   0  0  0  0  0  0  0  0  0  0  0  0
   10.9763   47.1830   53.8780 H   0  0  0  0  0  0  0  0  0  0  0  0
   10.7980   46.8997   50.8616 H   0  0  0  0  0  0  0  0  0  0  0  0
   11.3066   45.5706   51.9790 H   0  0  0  0  0  0  0  0  0  0  0  0
    8.8502   44.7148   50.8876 H   0  0  0  0  0  0  0  0  0  0  0  0
    9.7572   45.4328   49.5070 H   0  0  0  0  0  0  0  0  0  0  0  0
   10.0860   43.1300   50.1020 H   0  0  0  0  0  0  0  0  0  0  0  0
    7.7317   45.9610   51.2809 H   0  0  0  0  0  0  0  0  0  0  0  0
    2.7672   47.3067   53.9102 H   0  0  0  0  0  0  0  0  0  0  0  0
    0.4620   46.6350   52.8850 H   0  0  0  0  0  0  0  0  0  0  0  0
    0.2124   42.6014   50.1420 H   0  0  0  0  0  0  0  0  0  0  0  0
    5.2650   43.2960   50.9560 H   0  0  0  0  0  0  0  0  0  0  0  0
  1  2  2  0
  2  3  1  0
  3  4  1  0
  4  5  2  0
  5  6  1  0
  6  7  2  0
  7  8  1  0
  8  9  1  0
  9 10  1  0
 10 11  1  0
  8 12  2  0
  2 13  1  0
 13 14  2  0
 14 15  1  0
 15 16  1  0
 16 17  2  0
 17 18  1  0
 18 19  2  0
 19 20  1  0
 20 21  1  0
 20 22  2  0
 12  4  1  0
 22 13  1  0
 22 16  1  0
  3 23  1  0
  5 24  1  0
  6 25  1  0
  7 26  1  0
  9 27  1  0
  9 28  1  0
 10 29  1  0
 10 30  1  0
 11 31  1  0
 12 32  1  0
 14 33  1  0
 15 34  1  0
 18 35  1  0
 21 36  1  0
M  END
>  <meeko>  (5) 
{"is_sidechain": [false], "free_energy": -8.056, "intermolecular_energy": -10.213, "internal_energy": -0.735}

$$$$
