ligand_3_conformer_2_docked
     RDKit          3D

 47 50  0  0  0  0  0  0  0  0999 V2000
    0.3150   44.6660   51.5280 O   0  0  0  0  0  0  0  0  0  0  0  0
    1.1060   44.7450   52.5070 C   0  0  0  0  0  0  0  0  0  0  0  0
    2.5490   44.9740   52.2640 C   0  0  0  0  0  0  0  0  0  0  0  0
    2.9680   45.8900   51.2850 C   0  0  0  0  0  0  0  0  0  0  0  0
    4.3290   46.1020   51.0490 C   0  0  0  0  0  0  0  0  0  0  0  0
    5.2950   45.4030   51.7890 C   0  0  0  0  0  0  0  0  0  0  0  0
    6.6940   45.6140   51.5300 N   0  0  0  0  0  0  0  0  0  0  0  0
    7.3640   45.2920   50.3950 C   0  0  0  0  0  0  0  0  0  0  0  0
    8.6870   45.5980   50.4460 N   0  0  0  0  0  0  0  0  0  0  0  0
    8.8270   46.1400   51.6690 C   0  0  0  0  0  0  0  0  0  0  0  0
    9.9890   46.6600   52.2360 C   0  0  0  0  0  0  0  0  0  0  0  0
    9.8960   47.2220   53.5230 C   0  0  0  0  0  0  0  0  0  0  0  0
    8.6550   47.2600   54.1980 C   0  0  0  0  0  0  0  0  0  0  0  0
    7.4990   46.7290   53.5970 C   0  0  0  0  0  0  0  0  0  0  0  0
    7.6320   46.1560   52.3290 C   0  0  0  0  0  0  0  0  0  0  0  0
    4.8780   44.4650   52.7460 C   0  0  0  0  0  0  0  0  0  0  0  0
    3.5180   44.2540   52.9820 C   0  0  0  0  0  0  0  0  0  0  0  0
    0.5900   44.6000   53.8400 N   0  0  0  0  0  0  0  0  0  0  0  0
   -0.2170   43.4220   54.1820 C   0  0  0  0  0  0  0  0  0  0  0  0
   -1.3210   43.7960   55.1740 C   0  0  0  0  0  0  0  0  0  0  0  0
   -0.7760   44.4830   56.4440 C   0  0  0  0  0  0  0  0  0  0  0  0
    0.5940   45.1950   56.2540 C   0  0  2  0  0  0  0  0  0  0  0  0
    1.6170   44.2610   56.5170 O   0  0  0  0  0  0  0  0  0  0  0  0
    0.7140   46.3860   57.2390 C   0  0  0  0  0  0  0  0  0  0  0  0
    1.9610   46.3800   57.8840 O   0  0  0  0  0  0  0  0  0  0  0  0
    0.7310   45.7070   54.7990 C   0  0  0  0  0  0  0  0  0  0  0  0
    2.2195   46.4444   50.6999 H   0  0  0  0  0  0  0  0  0  0  0  0
    4.6449   46.8209   50.2787 H   0  0  0  0  0  0  0  0  0  0  0  0
    6.8839   44.8291   49.5202 H   0  0  0  0  0  0  0  0  0  0  0  0
   10.9468   46.6321   51.6958 H   0  0  0  0  0  0  0  0  0  0  0  0
   10.7943   47.6339   54.0062 H   0  0  0  0  0  0  0  0  0  0  0  0
    8.5924   47.7080   55.2007 H   0  0  0  0  0  0  0  0  0  0  0  0
    6.5250   46.7635   54.1069 H   0  0  0  0  0  0  0  0  0  0  0  0
    5.6267   43.8928   53.3134 H   0  0  0  0  0  0  0  0  0  0  0  0
    3.2030   43.5180   53.7363 H   0  0  0  0  0  0  0  0  0  0  0  0
   -0.6747   43.0190   53.2665 H   0  0  0  0  0  0  0  0  0  0  0  0
    0.4354   42.6670   54.6449 H   0  0  0  0  0  0  0  0  0  0  0  0
   -2.0226   44.4820   54.6769 H   0  0  0  0  0  0  0  0  0  0  0  0
   -1.8145   42.8641   55.4873 H   0  0  0  0  0  0  0  0  0  0  0  0
   -1.5108   45.2333   56.7711 H   0  0  0  0  0  0  0  0  0  0  0  0
   -0.6150   43.6871   57.1860 H   0  0  0  0  0  0  0  0  0  0  0  0
    2.1830   44.1880   55.7050 H   0  0  0  0  0  0  0  0  0  0  0  0
    0.6018   47.3273   56.6810 H   0  0  0  0  0  0  0  0  0  0  0  0
   -0.0752   46.2934   57.9997 H   0  0  0  0  0  0  0  0  0  0  0  0
    2.1370   47.3130   58.1730 H   0  0  0  0  0  0  0  0  0  0  0  0
   -0.0522   46.4546   54.6045 H   0  0  0  0  0  0  0  0  0  0  0  0
    1.7277   46.1556   54.6755 H   0  0  0  0  0  0  0  0  0  0  0  0
  1  2  2  0
  2  3  1  0
  3  4  2  0
  4  5  1  0
  5  6  2  0
  6  7  1  0
  7  8  1  0
  8  9  2  0
  9 10  1  0
 10 11  2  0
 11 12  1  0
 12 13  2  0
 13 14  1  0
 14 15  2  0
  6 16  1  0
 16 17  2  0
  2 18  1  0
 18 19  1  0
 19 20  1  0
 20 21  1  0
 21 22  1  0
 22 23  1  1
 22 24  1  0
 24 25  1  0
 22 26  1  0
 17  3  1  0
 26 18  1  0
 15  7  1  0
 15 10  1  0
  4 27  1  0
  5 28  1  0
  8 29  1  0
 11 30  1  0
 12 31  1  0
 13 32  1  0
 14 33  1  0
 16 34  1  0
 17 35  1  0
 19 36  1  0
 19 37  1  0
 20 38  1  0
 20 39  1  0
 21 40  1  0
 21 41  1  0
 23 42  1  0
 24 43  1  0
 24 44  1  0
 25 45  1  0
 26 46  1  0
 26 47  1  0
M  END
>  <meeko>  (1) 
{"is_sidechain": [false], "free_energy": -8.821, "intermolecular_energy": -11.399, "internal_energy": -0.726}

$$$$
ligand_3_conformer_2_docked
     RDKit          3D

 47 50  0  0  0  0  0  0  0  0999 V2000
    7.0720   44.6880   49.7530 O   0  0  0  0  0  0  0  0  0  0  0  0
    6.7790   45.2160   50.8610 C   0  0  0  0  0  0  0  0  0  0  0  0
    5.4020   45.0820   51.3920 C   0  0  0  0  0  0  0  0  0  0  0  0
    4.9840   43.8800   51.9850 C   0  0  0  0  0  0  0  0  0  0  0  0
    3.6830   43.7490   52.4800 C   0  0  0  0  0  0  0  0  0  0  0  0
    2.7790   44.8180   52.3920 C   0  0  0  0  0  0  0  0  0  0  0  0
    1.4370   44.6730   52.8880 N   0  0  0  0  0  0  0  0  0  0  0  0
    0.3430   44.3140   52.1690 C   0  0  0  0  0  0  0  0  0  0  0  0
   -0.7970   44.2740   52.9070 N   0  0  0  0  0  0  0  0  0  0  0  0
   -0.3740   44.6170   54.1380 C   0  0  0  0  0  0  0  0  0  0  0  0
   -1.1370   44.7060   55.3000 C   0  0  0  0  0  0  0  0  0  0  0  0
   -0.4750   45.0420   56.4950 C   0  0  0  0  0  0  0  0  0  0  0  0
    0.9190   45.2690   56.5000 C   0  0  0  0  0  0  0  0  0  0  0  0
    1.6630   45.1680   55.3100 C   0  0  0  0  0  0  0  0  0  0  0  0
    0.9700   44.8570   54.1360 C   0  0  0  0  0  0  0  0  0  0  0  0
    3.1860   46.0100   51.7710 C   0  0  0  0  0  0  0  0  0  0  0  0
    4.4860   46.1410   51.2770 C   0  0  0  0  0  0  0  0  0  0  0  0
    7.7860   45.9440   51.5810 N   0  0  0  0  0  0  0  0  0  0  0  0
    9.0730   46.2330   50.9350 C   0  0  0  0  0  0  0  0  0  0  0  0
   10.2120   46.1730   51.9570 C   0  0  0  0  0  0  0  0  0  0  0  0
    9.9790   47.0990   53.1680 C   0  0  0  0  0  0  0  0  0  0  0  0
    8.4840   47.4290   53.4490 C   0  0  2  0  0  0  0  0  0  0  0  0
    8.1390   48.5790   52.7090 O   0  0  0  0  0  0  0  0  0  0  0  0
    8.2770   47.7040   54.9600 C   0  0  0  0  0  0  0  0  0  0  0  0
    9.1850   48.6680   55.4240 O   0  0  0  0  0  0  0  0  0  0  0  0
    7.5860   46.2480   53.0070 C   0  0  0  0  0  0  0  0  0  0  0  0
    5.6849   43.0356   52.0607 H   0  0  0  0  0  0  0  0  0  0  0  0
    3.3664   42.8019   52.9413 H   0  0  0  0  0  0  0  0  0  0  0  0
    0.3762   44.0787   51.0950 H   0  0  0  0  0  0  0  0  0  0  0  0
   -2.2210   44.5198   55.2838 H   0  0  0  0  0  0  0  0  0  0  0  0
   -1.0464   45.1284   57.4310 H   0  0  0  0  0  0  0  0  0  0  0  0
    1.4268   45.5267   57.4411 H   0  0  0  0  0  0  0  0  0  0  0  0
    2.7513   45.3280   55.3035 H   0  0  0  0  0  0  0  0  0  0  0  0
    2.4770   46.8453   51.6730 H   0  0  0  0  0  0  0  0  0  0  0  0
    4.7947   47.0801   50.7945 H   0  0  0  0  0  0  0  0  0  0  0  0
    9.2562   45.4900   50.1448 H   0  0  0  0  0  0  0  0  0  0  0  0
    9.0352   47.2442   50.5036 H   0  0  0  0  0  0  0  0  0  0  0  0
   10.3052   45.1384   52.3187 H   0  0  0  0  0  0  0  0  0  0  0  0
   11.1280   46.5133   51.4518 H   0  0  0  0  0  0  0  0  0  0  0  0
   10.3966   46.6096   54.0603 H   0  0  0  0  0  0  0  0  0  0  0  0
   10.4714   48.0538   52.9315 H   0  0  0  0  0  0  0  0  0  0  0  0
    8.3220   49.3740   53.2750 H   0  0  0  0  0  0  0  0  0  0  0  0
    7.2517   48.0678   55.1224 H   0  0  0  0  0  0  0  0  0  0  0  0
    8.4457   46.7683   55.5132 H   0  0  0  0  0  0  0  0  0  0  0  0
    8.6450   49.4090   55.8040 H   0  0  0  0  0  0  0  0  0  0  0  0
    7.8391   45.3595   53.6040 H   0  0  0  0  0  0  0  0  0  0  0  0
    6.5337   46.5277   53.1635 H   0  0  0  0  0  0  0  0  0  0  0  0
  1  2  2  0
  2  3  1  0
  3  4  2  0
  4  5  1  0
  5  6  2  0
  6  7  1  0
  7  8  1  0
  8  9  2  0
  9 10  1  0
 10 11  2  0
 11 12  1  0
 12 13  2  0
 13 14  1  0
 14 15  2  0
  6 16  1  0
 16 17  2  0
  2 18  1  0
 18 19  1  0
 19 20  1  0
 20 21  1  0
 21 22  1  0
 22 23  1  6
 22 24  1  0
 24 25  1  0
 22 26  1  0
 17  3  1  0
 26 18  1  0
 15  7  1  0
 15 10  1  0
  4 27  1  0
  5 28  1  0
  8 29  1  0
 11 30  1  0
 12 31  1  0
 13 32  1  0
 14 33  1  0
 16 34  1  0
 17 35  1  0
 19 36  1  0
 19 37  1  0
 20 38  1  0
 20 39  1  0
 21 40  1  0
 21 41  1  0
 23 42  1  0
 24 43  1  0
 24 44  1  0
 25 45  1  0
 26 46  1  0
 26 47  1  0
M  END
>  <meeko>  (2) 
{"is_sidechain": [false], "free_energy": -8.639, "intermolecular_energy": -11.206, "internal_energy": -0.683}

$$$$
ligand_3_conformer_2_docked
     RDKit          3D

 47 50  0  0  0  0  0  0  0  0999 V2000
    0.2720   44.5500   51.7270 O   0  0  0  0  0  0  0  0  0  0  0  0
    1.0490   44.8270   52.6810 C   0  0  0  0  0  0  0  0  0  0  0  0
    2.4920   45.0300   52.4120 C   0  0  0  0  0  0  0  0  0  0  0  0
    2.9470   46.2370   51.8560 C   0  0  0  0  0  0  0  0  0  0  0  0
    4.3070   46.4280   51.5940 C   0  0  0  0  0  0  0  0  0  0  0  0
    5.2350   45.4170   51.8860 C   0  0  0  0  0  0  0  0  0  0  0  0
    6.6310   45.6130   51.6000 N   0  0  0  0  0  0  0  0  0  0  0  0
    7.2850   45.2420   50.4700 C   0  0  0  0  0  0  0  0  0  0  0  0
    8.6080   45.5460   50.4900 N   0  0  0  0  0  0  0  0  0  0  0  0
    8.7660   46.1390   51.6870 C   0  0  0  0  0  0  0  0  0  0  0  0
    9.9370   46.6790   52.2160 C   0  0  0  0  0  0  0  0  0  0  0  0
    9.8620   47.2950   53.4790 C   0  0  0  0  0  0  0  0  0  0  0  0
    8.6310   47.3640   54.1690 C   0  0  0  0  0  0  0  0  0  0  0  0
    7.4660   46.8120   53.6060 C   0  0  0  0  0  0  0  0  0  0  0  0
    7.5800   46.1860   52.3620 C   0  0  0  0  0  0  0  0  0  0  0  0
    4.7780   44.1990   52.4120 C   0  0  0  0  0  0  0  0  0  0  0  0
    3.4190   44.0080   52.6740 C   0  0  0  0  0  0  0  0  0  0  0  0
    0.5190   44.9290   54.0120 N   0  0  0  0  0  0  0  0  0  0  0  0
    1.2550   45.6910   55.0290 C   0  0  0  0  0  0  0  0  0  0  0  0
    1.1100   45.0310   56.4030 C   0  0  0  0  0  0  0  0  0  0  0  0
   -0.3620   44.8300   56.8180 C   0  0  0  0  0  0  0  0  0  0  0  0
   -1.3600   44.7460   55.6280 C   0  0  2  0  0  0  0  0  0  0  0  0
   -1.7950   46.0520   55.3240 O   0  0  0  0  0  0  0  0  0  0  0  0
   -2.5800   43.8720   56.0210 C   0  0  0  0  0  0  0  0  0  0  0  0
   -3.2580   43.4150   54.8800 O   0  0  0  0  0  0  0  0  0  0  0  0
   -0.6620   44.1360   54.3880 C   0  0  0  0  0  0  0  0  0  0  0  0
    2.2285   47.0373   51.6252 H   0  0  0  0  0  0  0  0  0  0  0  0
    4.6515   47.3766   51.1563 H   0  0  0  0  0  0  0  0  0  0  0  0
    6.7919   44.7443   49.6220 H   0  0  0  0  0  0  0  0  0  0  0  0
   10.8875   46.6255   51.6649 H   0  0  0  0  0  0  0  0  0  0  0  0
   10.7673   47.7254   53.9319 H   0  0  0  0  0  0  0  0  0  0  0  0
    8.5832   47.8528   55.1533 H   0  0  0  0  0  0  0  0  0  0  0  0
    6.4990   46.8711   54.1269 H   0  0  0  0  0  0  0  0  0  0  0  0
    5.4938   43.3899   52.6192 H   0  0  0  0  0  0  0  0  0  0  0  0
    3.0725   43.0499   53.0886 H   0  0  0  0  0  0  0  0  0  0  0  0
    2.3197   45.7261   54.7548 H   0  0  0  0  0  0  0  0  0  0  0  0
    0.8423   46.7094   55.0783 H   0  0  0  0  0  0  0  0  0  0  0  0
    1.6043   44.0487   56.3749 H   0  0  0  0  0  0  0  0  0  0  0  0
    1.5738   45.7006   57.1423 H   0  0  0  0  0  0  0  0  0  0  0  0
   -0.4326   43.8948   57.3928 H   0  0  0  0  0  0  0  0  0  0  0  0
   -0.6465   45.7164   57.4040 H   0  0  0  0  0  0  0  0  0  0  0  0
   -2.2000   46.0380   54.4170 H   0  0  0  0  0  0  0  0  0  0  0  0
   -2.2303   43.0064   56.6028 H   0  0  0  0  0  0  0  0  0  0  0  0
   -3.2717   44.4833   56.6192 H   0  0  0  0  0  0  0  0  0  0  0  0
   -4.1610   43.1320   55.1780 H   0  0  0  0  0  0  0  0  0  0  0  0
   -0.3473   43.1079   54.6203 H   0  0  0  0  0  0  0  0  0  0  0  0
   -1.3710   44.1379   53.5470 H   0  0  0  0  0  0  0  0  0  0  0  0
  1  2  2  0
  2  3  1  0
  3  4  2  0
  4  5  1  0
  5  6  2  0
  6  7  1  0
  7  8  1  0
  8  9  2  0
  9 10  1  0
 10 11  2  0
 11 12  1  0
 12 13  2  0
 13 14  1  0
 14 15  2  0
  6 16  1  0
 16 17  2  0
  2 18  1  0
 18 19  1  0
 19 20  1  0
 20 21  1  0
 21 22  1  0
 22 23  1  6
 22 24  1  0
 24 25  1  0
 22 26  1  0
 17  3  1  0
 26 18  1  0
 15  7  1  0
 15 10  1  0
  4 27  1  0
  5 28  1  0
  8 29  1  0
 11 30  1  0
 12 31  1  0
 13 32  1  0
 14 33  1  0
 16 34  1  0
 17 35  1  0
 19 36  1  0
 19 37  1  0
 20 38  1  0
 20 39  1  0
 21 40  1  0
 21 41  1  0
 23 42  1  0
 24 43  1  0
 24 44  1  0
 25 45  1  0
 26 46  1  0
 26 47  1  0
M  END
>  <meeko>  (3) 
{"is_sidechain": [false], "free_energy": -8.579, "intermolecular_energy": -11.08, "internal_energy": -0.733}

$$$$
ligand_3_conformer_2_docked
     RDKit          3D

 47 50  0  0  0  0  0  0  0  0999 V2000
    1.2770   43.0990   50.4280 O   0  0  0  0  0  0  0  0  0  0  0  0
    1.2330   43.9180   51.3870 C   0  0  0  0  0  0  0  0  0  0  0  0
    2.4900   44.5070   51.9030 C   0  0  0  0  0  0  0  0  0  0  0  0
    2.8450   45.8250   51.5740 C   0  0  0  0  0  0  0  0  0  0  0  0
    4.0350   46.3800   52.0540 C   0  0  0  0  0  0  0  0  0  0  0  0
    4.8900   45.6270   52.8730 C   0  0  0  0  0  0  0  0  0  0  0  0
    6.1200   46.1970   53.3510 N   0  0  0  0  0  0  0  0  0  0  0  0
    6.3250   46.7810   54.5590 C   0  0  0  0  0  0  0  0  0  0  0  0
    7.5910   47.2440   54.7250 N   0  0  0  0  0  0  0  0  0  0  0  0
    8.1880   46.9200   53.5630 C   0  0  0  0  0  0  0  0  0  0  0  0
    9.5170   47.1400   53.2050 C   0  0  0  0  0  0  0  0  0  0  0  0
    9.9420   46.6750   51.9460 C   0  0  0  0  0  0  0  0  0  0  0  0
    9.0410   46.0000   51.0920 C   0  0  0  0  0  0  0  0  0  0  0  0
    7.7060   45.7910   51.4850 C   0  0  0  0  0  0  0  0  0  0  0  0
    7.3110   46.2870   52.7310 C   0  0  0  0  0  0  0  0  0  0  0  0
    4.5520   44.2990   53.1770 C   0  0  0  0  0  0  0  0  0  0  0  0
    3.3630   43.7450   52.6980 C   0  0  0  0  0  0  0  0  0  0  0  0
   -0.0390   44.2560   51.9640 N   0  0  0  0  0  0  0  0  0  0  0  0
   -1.2080   44.4310   51.0930 C   0  0  0  0  0  0  0  0  0  0  0  0
   -2.1150   45.5410   51.6290 C   0  0  0  0  0  0  0  0  0  0  0  0
   -2.5440   45.3090   53.0920 C   0  0  0  0  0  0  0  0  0  0  0  0
   -1.5710   44.4150   53.9140 C   0  0  2  0  0  0  0  0  0  0  0  0
   -1.9680   43.0720   53.7560 O   0  0  0  0  0  0  0  0  0  0  0  0
   -1.6370   44.8010   55.4140 C   0  0  0  0  0  0  0  0  0  0  0  0
   -0.7970   45.8920   55.6880 O   0  0  0  0  0  0  0  0  0  0  0  0
   -0.1230   44.5860   53.3960 C   0  0  0  0  0  0  0  0  0  0  0  0
    2.1819   46.4254   50.9338 H   0  0  0  0  0  0  0  0  0  0  0  0
    4.3026   47.4133   51.7880 H   0  0  0  0  0  0  0  0  0  0  0  0
    5.5431   46.8705   55.3275 H   0  0  0  0  0  0  0  0  0  0  0  0
   10.2102   47.6593   53.8831 H   0  0  0  0  0  0  0  0  0  0  0  0
   10.9815   46.8381   51.6252 H   0  0  0  0  0  0  0  0  0  0  0  0
    9.3856   45.6353   50.1131 H   0  0  0  0  0  0  0  0  0  0  0  0
    6.9981   45.2562   50.8347 H   0  0  0  0  0  0  0  0  0  0  0  0
    5.2278   43.6910   53.7963 H   0  0  0  0  0  0  0  0  0  0  0  0
    3.1077   42.7039   52.9449 H   0  0  0  0  0  0  0  0  0  0  0  0
   -0.8687   44.6978   50.0812 H   0  0  0  0  0  0  0  0  0  0  0  0
   -1.7760   43.4894   51.0668 H   0  0  0  0  0  0  0  0  0  0  0  0
   -1.5736   46.4967   51.5690 H   0  0  0  0  0  0  0  0  0  0  0  0
   -3.0270   45.5489   51.0141 H   0  0  0  0  0  0  0  0  0  0  0  0
   -2.6146   46.2878   53.5890 H   0  0  0  0  0  0  0  0  0  0  0  0
   -3.5053   44.7755   53.0561 H   0  0  0  0  0  0  0  0  0  0  0  0
   -2.8860   43.0640   53.3790 H   0  0  0  0  0  0  0  0  0  0  0  0
   -2.6721   45.0699   55.6715 H   0  0  0  0  0  0  0  0  0  0  0  0
   -1.3030   43.9411   56.0132 H   0  0  0  0  0  0  0  0  0  0  0  0
   -0.3210   45.6810   56.5330 H   0  0  0  0  0  0  0  0  0  0  0  0
    0.1927   45.6291   53.5451 H   0  0  0  0  0  0  0  0  0  0  0  0
    0.5347   43.9039   53.9547 H   0  0  0  0  0  0  0  0  0  0  0  0
  1  2  2  0
  2  3  1  0
  3  4  2  0
  4  5  1  0
  5  6  2  0
  6  7  1  0
  7  8  1  0
  8  9  2  0
  9 10  1  0
 10 11  2  0
 11 12  1  0
 12 13  2  0
 13 14  1  0
 14 15  2  0
  6 16  1  0
 16 17  2  0
  2 18  1  0
 18 19  1  0
 19 20  1  0
 20 21  1  0
 21 22  1  0
 22 23  1  1
 22 24  1  0
 24 25  1  0
 22 26  1  0
 17  3  1  0
 26 18  1  0
 15  7  1  0
 15 10  1  0
  4 27  1  0
  5 28  1  0
  8 29  1  0
 11 30  1  0
 12 31  1  0
 13 32  1  0
 14 33  1  0
 16 34  1  0
 17 35  1  0
 19 36  1  0
 19 37  1  0
 20 38  1  0
 20 39  1  0
 21 40  1  0
 21 41  1  0
 23 42  1  0
 24 43  1  0
 24 44  1  0
 25 45  1  0
 26 46  1  0
 26 47  1  0
M  END
>  <meeko>  (4) 
{"is_sidechain": [false], "free_energy": -8.467, "intermolecular_energy": -10.931, "internal_energy": -0.736}

$$$$
ligand_3_conformer_2_docked
     RDKit          3D

 47 50  0  0  0  0  0  0  0  0999 V2000
    1.2990   43.1060   50.4130 O   0  0  0  0  0  0  0  0  0  0  0  0
    1.2300   43.9080   51.3830 C   0  0  0  0  0  0  0  0  0  0  0  0
    2.4710   44.5130   51.9200 C   0  0  0  0  0  0  0  0  0  0  0  0
    2.7440   45.8750   51.7130 C   0  0  0  0  0  0  0  0  0  0  0  0
    3.9190   46.4460   52.2130 C   0  0  0  0  0  0  0  0  0  0  0  0
    4.8380   45.6660   52.9290 C   0  0  0  0  0  0  0  0  0  0  0  0
    6.0520   46.2560   53.4270 N   0  0  0  0  0  0  0  0  0  0  0  0
    6.2240   46.8540   54.6330 C   0  0  0  0  0  0  0  0  0  0  0  0
    7.4820   47.3340   54.8210 N   0  0  0  0  0  0  0  0  0  0  0  0
    8.1070   47.0040   53.6760 C   0  0  0  0  0  0  0  0  0  0  0  0
    9.4400   47.2350   53.3430 C   0  0  0  0  0  0  0  0  0  0  0  0
    9.8970   46.7620   52.0990 C   0  0  0  0  0  0  0  0  0  0  0  0
    9.0220   46.0680   51.2340 C   0  0  0  0  0  0  0  0  0  0  0  0
    7.6810   45.8470   51.6000 C   0  0  0  0  0  0  0  0  0  0  0  0
    7.2540   46.3520   52.8320 C   0  0  0  0  0  0  0  0  0  0  0  0
    4.5810   44.2980   53.1100 C   0  0  0  0  0  0  0  0  0  0  0  0
    3.4080   43.7270   52.6120 C   0  0  0  0  0  0  0  0  0  0  0  0
   -0.0530   44.2110   51.9550 N   0  0  0  0  0  0  0  0  0  0  0  0
   -0.1870   44.3350   53.4120 C   0  0  0  0  0  0  0  0  0  0  0  0
   -1.5410   43.7930   53.8750 C   0  0  0  0  0  0  0  0  0  0  0  0
   -2.7310   44.4550   53.1500 C   0  0  0  0  0  0  0  0  0  0  0  0
   -2.3850   45.0450   51.7520 C   0  0  2  0  0  0  0  0  0  0  0  0
   -1.9610   46.3780   51.9280 O   0  0  0  0  0  0  0  0  0  0  0  0
   -3.6390   45.0170   50.8410 C   0  0  0  0  0  0  0  0  0  0  0  0
   -3.2800   45.1280   49.4890 O   0  0  0  0  0  0  0  0  0  0  0  0
   -1.2470   44.2270   51.0950 C   0  0  0  0  0  0  0  0  0  0  0  0
    2.0292   46.4968   51.1541 H   0  0  0  0  0  0  0  0  0  0  0  0
    4.1232   47.5135   52.0434 H   0  0  0  0  0  0  0  0  0  0  0  0
    5.4249   46.9416   55.3839 H   0  0  0  0  0  0  0  0  0  0  0  0
   10.1129   47.7694   54.0298 H   0  0  0  0  0  0  0  0  0  0  0  0
   10.9412   46.9336   51.7985 H   0  0  0  0  0  0  0  0  0  0  0  0
    9.3917   45.6973   50.2666 H   0  0  0  0  0  0  0  0  0  0  0  0
    6.9936   45.2968   50.9406 H   0  0  0  0  0  0  0  0  0  0  0  0
    5.3082   43.6718   53.6476 H   0  0  0  0  0  0  0  0  0  0  0  0
    3.2161   42.6544   52.7625 H   0  0  0  0  0  0  0  0  0  0  0  0
    0.6170   43.7638   53.8991 H   0  0  0  0  0  0  0  0  0  0  0  0
   -0.1175   45.3981   53.6859 H   0  0  0  0  0  0  0  0  0  0  0  0
   -1.5705   42.7104   53.6822 H   0  0  0  0  0  0  0  0  0  0  0  0
   -1.6390   44.0201   54.9468 H   0  0  0  0  0  0  0  0  0  0  0  0
   -3.5181   43.6979   53.0186 H   0  0  0  0  0  0  0  0  0  0  0  0
   -3.0496   45.3006   53.7773 H   0  0  0  0  0  0  0  0  0  0  0  0
   -0.9790   46.3710   52.0790 H   0  0  0  0  0  0  0  0  0  0  0  0
   -4.1742   44.0683   50.9945 H   0  0  0  0  0  0  0  0  0  0  0  0
   -4.2829   45.8692   51.1041 H   0  0  0  0  0  0  0  0  0  0  0  0
   -2.3830   45.5520   49.4650 H   0  0  0  0  0  0  0  0  0  0  0  0
   -1.5906   43.1943   50.9354 H   0  0  0  0  0  0  0  0  0  0  0  0
   -0.9844   44.6952   50.1349 H   0  0  0  0  0  0  0  0  0  0  0  0
  1  2  2  0
  2  3  1  0
  3  4  2  0
  4  5  1  0
  5  6  2  0
  6  7  1  0
  7  8  1  0
  8  9  2  0
  9 10  1  0
 10 11  2  0
 11 12  1  0
 12 13  2  0
 13 14  1  0
 14 15  2  0
  6 16  1  0
 16 17  2  0
  2 18  1  0
 18 19  1  0
 19 20  1  0
 20 21  1  0
 21 22  1  0
 22 23  1  1
 22 24  1  0
 24 25  1  0
 22 26  1  0
 17  3  1  0
 26 18  1  0
 15  7  1  0
 15 10  1  0
  4 27  1  0
  5 28  1  0
  8 29  1  0
 11 30  1  0
 12 31  1  0
 13 32  1  0
 14 33  1  0
 16 34  1  0
 17 35  1  0
 19 36  1  0
 19 37  1  0
 20 38  1  0
 20 39  1  0
 21 40  1  0
 21 41  1  0
 23 42  1  0
 24 43  1  0
 24 44  1  0
 25 45  1  0
 26 46  1  0
 26 47  1  0
M  END
>  <meeko>  (5) 
{"is_sidechain": [false], "free_energy": -8.323, "intermolecular_energy": -10.757, "internal_energy": -0.724}

$$$$
