ligand_74_conformer_1_docked
     RDKit          3D

 46 49  0  0  0  0  0  0  0  0999 V2000
   -2.9000   45.3520   55.6230 C   0  0  0  0  0  0  0  0  0  0  0  0
   -2.5200   43.9400   55.1820 C   0  0  2  0  0  0  0  0  0  0  0  0
   -1.2200   43.9070   54.3570 C   0  0  0  0  0  0  0  0  0  0  0  0
   -1.7020   43.3580   53.0480 C   0  0  0  0  0  0  0  0  0  0  0  0
   -0.8840   43.1980   51.7900 C   0  0  0  0  0  0  0  0  0  0  0  0
   -0.3350   44.4940   51.2750 C   0  0  0  0  0  0  0  0  0  0  0  0
    1.0860   44.1510   51.4710 N   0  0  0  0  0  0  0  0  0  0  0  0
    2.3530   44.7740   51.2760 C   0  0  0  0  0  0  0  0  0  0  0  0
    2.4000   45.9390   50.8030 O   0  0  0  0  0  0  0  0  0  0  0  0
    3.5540   44.0560   51.5940 N   0  0  0  0  0  0  0  0  0  0  0  0
    4.8720   44.6250   51.6040 C   0  0  0  0  0  0  0  0  0  0  0  0
    5.5220   45.2060   52.6800 C   0  0  0  0  0  0  0  0  0  0  0  0
    6.7710   45.5290   52.1840 C   0  0  0  0  0  0  0  0  0  0  0  0
    7.8510   46.1780   52.9600 C   0  0  0  0  0  0  0  0  0  0  0  0
    7.5420   46.8720   54.1440 C   0  0  0  0  0  0  0  0  0  0  0  0
    8.5550   47.4760   54.8930 C   0  0  0  0  0  0  0  0  0  0  0  0
    9.8860   47.3840   54.4750 C   0  0  0  0  0  0  0  0  0  0  0  0
   10.8680   47.9700   55.2040 F   0  0  0  0  0  0  0  0  0  0  0  0
   10.2050   46.6810   53.3100 C   0  0  0  0  0  0  0  0  0  0  0  0
    9.1930   46.0760   52.5570 C   0  0  0  0  0  0  0  0  0  0  0  0
    6.8280   45.1630   50.8810 N   0  0  0  0  0  0  0  0  0  0  0  0
    7.9380   45.3420   49.9510 C   0  0  0  0  0  0  0  0  0  0  0  0
    5.6830   44.5990   50.5290 N   0  0  0  0  0  0  0  0  0  0  0  0
    0.5690   42.8660   51.9740 C   0  0  0  0  0  0  0  0  0  0  0  0
   -2.9680   43.1230   53.0560 N   0  0  0  0  0  0  0  0  0  0  0  0
   -3.4910   43.4320   54.2830 O   0  0  0  0  0  0  0  0  0  0  0  0
   -2.9134   45.4018   56.7218 H   0  0  0  0  0  0  0  0  0  0  0  0
   -2.1629   46.0690   55.2324 H   0  0  0  0  0  0  0  0  0  0  0  0
   -3.8974   45.6022   55.2324 H   0  0  0  0  0  0  0  0  0  0  0  0
   -2.4251   43.3638   56.1142 H   0  0  0  0  0  0  0  0  0  0  0  0
   -0.7960   44.9149   54.2369 H   0  0  0  0  0  0  0  0  0  0  0  0
   -0.4143   43.3169   54.8182 H   0  0  0  0  0  0  0  0  0  0  0  0
   -1.5804   42.5386   51.2513 H   0  0  0  0  0  0  0  0  0  0  0  0
   -0.5870   44.6722   50.2192 H   0  0  0  0  0  0  0  0  0  0  0  0
   -0.6980   45.4165   51.7517 H   0  0  0  0  0  0  0  0  0  0  0  0
    3.4710   43.0360   51.8000 H   0  0  0  0  0  0  0  0  0  0  0  0
    5.1336   45.3722   53.6957 H   0  0  0  0  0  0  0  0  0  0  0  0
    6.4974   46.9395   54.4819 H   0  0  0  0  0  0  0  0  0  0  0  0
    8.3050   48.0248   55.8130 H   0  0  0  0  0  0  0  0  0  0  0  0
   11.2529   46.6033   52.9848 H   0  0  0  0  0  0  0  0  0  0  0  0
    9.4494   45.5175   51.6446 H   0  0  0  0  0  0  0  0  0  0  0  0
    8.8695   45.4922   50.5164 H   0  0  0  0  0  0  0  0  0  0  0  0
    8.0336   44.4477   49.3177 H   0  0  0  0  0  0  0  0  0  0  0  0
    7.7477   46.2211   49.3177 H   0  0  0  0  0  0  0  0  0  0  0  0
    0.8900   42.0101   51.3622 H   0  0  0  0  0  0  0  0  0  0  0  0
    0.8892   42.5555   52.9795 H   0  0  0  0  0  0  0  0  0  0  0  0
  1  2  1  0
  2  3  1  0
  3  4  1  0
  4  5  1  0
  5  6  1  0
  6  7  1  0
  7  8  1  0
  8  9  2  0
  8 10  1  0
 10 11  1  0
 11 12  1  0
 12 13  2  0
 13 14  1  0
 14 15  2  0
 15 16  1  0
 16 17  2  0
 17 18  1  0
 17 19  1  0
 19 20  2  0
 13 21  1  0
 21 22  1  0
 21 23  1  0
  7 24  1  0
  4 25  2  0
 25 26  1  0
 26  2  1  0
 24  5  1  0
 23 11  2  0
 20 14  1  0
  1 27  1  0
  1 28  1  0
  1 29  1  0
  2 30  1  1
  3 31  1  0
  3 32  1  0
  5 33  1  0
  6 34  1  0
  6 35  1  0
 10 36  1  0
 12 37  1  0
 15 38  1  0
 16 39  1  0
 19 40  1  0
 20 41  1  0
 22 42  1  0
 22 43  1  0
 22 44  1  0
 24 45  1  0
 24 46  1  0
M  END
>  <meeko>  (1) 
{"is_sidechain": [false], "free_energy": -8.537, "intermolecular_energy": -10.034, "internal_energy": -0.004}

$$$$
ligand_74_conformer_1_docked
     RDKit          3D

 46 49  0  0  0  0  0  0  0  0999 V2000
   -3.6000   42.6590   58.8310 C   0  0  0  0  0  0  0  0  0  0  0  0
   -3.4730   43.9100   57.9650 C   0  0  2  0  0  0  0  0  0  0  0  0
   -3.8010   43.6410   56.4840 C   0  0  0  0  0  0  0  0  0  0  0  0
   -2.5030   43.9810   55.8160 C   0  0  0  0  0  0  0  0  0  0  0  0
   -2.1800   43.8070   54.3520 C   0  0  0  0  0  0  0  0  0  0  0  0
   -1.5680   45.0270   53.7330 C   0  0  0  0  0  0  0  0  0  0  0  0
   -0.2620   44.4120   53.4320 N   0  0  0  0  0  0  0  0  0  0  0  0
    0.9770   44.8100   52.8510 C   0  0  0  0  0  0  0  0  0  0  0  0
    1.1100   45.9900   52.4330 O   0  0  0  0  0  0  0  0  0  0  0  0
    2.0410   43.8560   52.7230 N   0  0  0  0  0  0  0  0  0  0  0  0
    3.3810   44.1700   52.3160 C   0  0  0  0  0  0  0  0  0  0  0  0
    4.2660   45.0270   52.9490 C   0  0  0  0  0  0  0  0  0  0  0  0
    5.4240   44.9270   52.2000 C   0  0  0  0  0  0  0  0  0  0  0  0
    6.6800   45.6580   52.4770 C   0  0  0  0  0  0  0  0  0  0  0  0
    7.1030   45.8430   53.8060 C   0  0  0  0  0  0  0  0  0  0  0  0
    8.2960   46.5180   54.0800 C   0  0  0  0  0  0  0  0  0  0  0  0
    9.0820   47.0050   53.0310 C   0  0  0  0  0  0  0  0  0  0  0  0
   10.2400   47.6590   53.2990 F   0  0  0  0  0  0  0  0  0  0  0  0
    8.6800   46.8100   51.7070 C   0  0  0  0  0  0  0  0  0  0  0  0
    7.4860   46.1350   51.4300 C   0  0  0  0  0  0  0  0  0  0  0  0
    5.2070   44.0650   51.1780 N   0  0  0  0  0  0  0  0  0  0  0  0
    6.1350   43.6830   50.1200 C   0  0  0  0  0  0  0  0  0  0  0  0
    3.9730   43.5910   51.2540 N   0  0  0  0  0  0  0  0  0  0  0  0
   -0.8460   43.1980   54.0290 C   0  0  0  0  0  0  0  0  0  0  0  0
   -1.6040   44.3520   56.6590 N   0  0  0  0  0  0  0  0  0  0  0  0
   -2.1230   44.3420   57.9260 O   0  0  0  0  0  0  0  0  0  0  0  0
   -3.5711   42.9438   59.8931 H   0  0  0  0  0  0  0  0  0  0  0  0
   -4.5538   42.1567   58.6119 H   0  0  0  0  0  0  0  0  0  0  0  0
   -2.7667   41.9752   58.6119 H   0  0  0  0  0  0  0  0  0  0  0  0
   -4.1663   44.6385   58.4106 H   0  0  0  0  0  0  0  0  0  0  0  0
   -4.0727   42.5880   56.3188 H   0  0  0  0  0  0  0  0  0  0  0  0
   -4.6601   44.2150   56.1066 H   0  0  0  0  0  0  0  0  0  0  0  0
   -3.1325   43.3462   54.0513 H   0  0  0  0  0  0  0  0  0  0  0  0
   -2.1004   45.3567   52.8287 H   0  0  0  0  0  0  0  0  0  0  0  0
   -1.5614   45.9457   54.3379 H   0  0  0  0  0  0  0  0  0  0  0  0
    1.8190   42.8520   52.9060 H   0  0  0  0  0  0  0  0  0  0  0  0
    4.0886   45.6447   53.8417 H   0  0  0  0  0  0  0  0  0  0  0  0
    6.4917   45.4544   54.6338 H   0  0  0  0  0  0  0  0  0  0  0  0
    8.6168   46.6662   55.1217 H   0  0  0  0  0  0  0  0  0  0  0  0
    9.3024   47.1873   50.8822 H   0  0  0  0  0  0  0  0  0  0  0  0
    7.1767   45.9770   50.3863 H   0  0  0  0  0  0  0  0  0  0  0  0
    7.0641   43.3005   50.5677 H   0  0  0  0  0  0  0  0  0  0  0  0
    5.6786   42.8996   49.4971 H   0  0  0  0  0  0  0  0  0  0  0  0
    6.3623   44.5607   49.4971 H   0  0  0  0  0  0  0  0  0  0  0  0
   -0.9209   42.3663   53.3130 H   0  0  0  0  0  0  0  0  0  0  0  0
   -0.2938   42.7314   54.8580 H   0  0  0  0  0  0  0  0  0  0  0  0
  1  2  1  0
  2  3  1  0
  3  4  1  0
  4  5  1  0
  5  6  1  0
  6  7  1  0
  7  8  1  0
  8  9  2  0
  8 10  1  0
 10 11  1  0
 11 12  1  0
 12 13  2  0
 13 14  1  0
 14 15  2  0
 15 16  1  0
 16 17  2  0
 17 18  1  0
 17 19  1  0
 19 20  2  0
 13 21  1  0
 21 22  1  0
 21 23  1  0
  7 24  1  0
  4 25  2  0
 25 26  1  0
 26  2  1  0
 24  5  1  0
 23 11  2  0
 20 14  1  0
  1 27  1  0
  1 28  1  0
  1 29  1  0
  2 30  1  1
  3 31  1  0
  3 32  1  0
  5 33  1  0
  6 34  1  0
  6 35  1  0
 10 36  1  0
 12 37  1  0
 15 38  1  0
 16 39  1  0
 19 40  1  0
 20 41  1  0
 22 42  1  0
 22 43  1  0
 22 44  1  0
 24 45  1  0
 24 46  1  0
M  END
>  <meeko>  (2) 
{"is_sidechain": [false], "free_energy": -8.385, "intermolecular_energy": -9.803, "internal_energy": -0.057}

$$$$
ligand_74_conformer_1_docked
     RDKit          3D

 46 49  0  0  0  0  0  0  0  0999 V2000
   -3.8130   46.6860   60.4830 C   0  0  0  0  0  0  0  0  0  0  0  0
   -3.3790   47.1500   59.0940 C   0  0  2  0  0  0  0  0  0  0  0  0
   -3.8160   46.1790   57.9820 C   0  0  0  0  0  0  0  0  0  0  0  0
   -2.4970   45.7540   57.4100 C   0  0  0  0  0  0  0  0  0  0  0  0
   -2.2810   44.7090   56.3440 C   0  0  0  0  0  0  0  0  0  0  0  0
   -1.9730   45.2930   54.9980 C   0  0  0  0  0  0  0  0  0  0  0  0
   -0.6060   44.7480   54.8990 N   0  0  0  0  0  0  0  0  0  0  0  0
    0.4750   44.7870   53.9730 C   0  0  0  0  0  0  0  0  0  0  0  0
    0.3420   45.4280   52.8970 O   0  0  0  0  0  0  0  0  0  0  0  0
    1.6870   44.0740   54.2630 N   0  0  0  0  0  0  0  0  0  0  0  0
    2.8990   44.1710   53.5000 C   0  0  0  0  0  0  0  0  0  0  0  0
    3.9300   45.0750   53.6840 C   0  0  0  0  0  0  0  0  0  0  0  0
    4.8740   44.7050   52.7440 C   0  0  0  0  0  0  0  0  0  0  0  0
    6.1780   45.3740   52.5410 C   0  0  0  0  0  0  0  0  0  0  0  0
    6.6330   45.6390   51.2370 C   0  0  0  0  0  0  0  0  0  0  0  0
    7.8570   46.2840   51.0330 C   0  0  0  0  0  0  0  0  0  0  0  0
    8.6310   46.6800   52.1280 C   0  0  0  0  0  0  0  0  0  0  0  0
    9.8170   47.3060   51.9280 F   0  0  0  0  0  0  0  0  0  0  0  0
    8.1780   46.4380   53.4280 C   0  0  0  0  0  0  0  0  0  0  0  0
    6.9550   45.7920   53.6350 C   0  0  0  0  0  0  0  0  0  0  0  0
    4.3980   43.6470   52.0450 N   0  0  0  0  0  0  0  0  0  0  0  0
    5.0390   42.9490   50.9360 C   0  0  0  0  0  0  0  0  0  0  0  0
    3.2060   43.3090   52.5120 N   0  0  0  0  0  0  0  0  0  0  0  0
   -0.8900   44.1570   56.2190 C   0  0  0  0  0  0  0  0  0  0  0  0
   -1.5050   46.3070   58.0150 N   0  0  0  0  0  0  0  0  0  0  0  0
   -1.9650   47.1430   58.9970 O   0  0  0  0  0  0  0  0  0  0  0  0
   -3.2729   47.2634   61.2478 H   0  0  0  0  0  0  0  0  0  0  0  0
   -4.8952   46.8437   60.6008 H   0  0  0  0  0  0  0  0  0  0  0  0
   -3.5834   45.6167   60.6008 H   0  0  0  0  0  0  0  0  0  0  0  0
   -3.8335   48.1438   58.9685 H   0  0  0  0  0  0  0  0  0  0  0  0
   -4.3690   45.3217   58.3934 H   0  0  0  0  0  0  0  0  0  0  0  0
   -4.4986   46.6253   57.2438 H   0  0  0  0  0  0  0  0  0  0  0  0
   -3.1507   44.0801   56.5853 H   0  0  0  0  0  0  0  0  0  0  0  0
   -2.6390   44.9145   54.2086 H   0  0  0  0  0  0  0  0  0  0  0  0
   -2.0873   46.3813   54.8865 H   0  0  0  0  0  0  0  0  0  0  0  0
    1.6780   43.4090   55.0670 H   0  0  0  0  0  0  0  0  0  0  0  0
    3.9859   45.8987   54.4109 H   0  0  0  0  0  0  0  0  0  0  0  0
    6.0229   45.3373   50.3728 H   0  0  0  0  0  0  0  0  0  0  0  0
    8.2111   46.4800   50.0102 H   0  0  0  0  0  0  0  0  0  0  0  0
    8.7841   46.7560   54.2891 H   0  0  0  0  0  0  0  0  0  0  0  0
    6.5992   45.6100   54.6598 H   0  0  0  0  0  0  0  0  0  0  0  0
    5.7334   42.1928   51.3310 H   0  0  0  0  0  0  0  0  0  0  0  0
    4.2720   42.4564   50.3204 H   0  0  0  0  0  0  0  0  0  0  0  0
    5.5950   43.6714   50.3204 H   0  0  0  0  0  0  0  0  0  0  0  0
   -0.8691   43.0573   56.2053 H   0  0  0  0  0  0  0  0  0  0  0  0
   -0.1853   44.3850   57.0323 H   0  0  0  0  0  0  0  0  0  0  0  0
  1  2  1  0
  2  3  1  0
  3  4  1  0
  4  5  1  0
  5  6  1  0
  6  7  1  0
  7  8  1  0
  8  9  2  0
  8 10  1  0
 10 11  1  0
 11 12  1  0
 12 13  2  0
 13 14  1  0
 14 15  2  0
 15 16  1  0
 16 17  2  0
 17 18  1  0
 17 19  1  0
 19 20  2  0
 13 21  1  0
 21 22  1  0
 21 23  1  0
  7 24  1  0
  4 25  2  0
 25 26  1  0
 26  2  1  0
 24  5  1  0
 23 11  2  0
 20 14  1  0
  1 27  1  0
  1 28  1  0
  1 29  1  0
  2 30  1  6
  3 31  1  0
  3 32  1  0
  5 33  1  0
  6 34  1  0
  6 35  1  0
 10 36  1  0
 12 37  1  0
 15 38  1  0
 16 39  1  0
 19 40  1  0
 20 41  1  0
 22 42  1  0
 22 43  1  0
 22 44  1  0
 24 45  1  0
 24 46  1  0
M  END
>  <meeko>  (3) 
{"is_sidechain": [false], "free_energy": -8.315, "intermolecular_energy": -9.583, "internal_energy": -0.194}

$$$$
ligand_74_conformer_1_docked
     RDKit          3D

 46 49  0  0  0  0  0  0  0  0999 V2000
    9.8820   46.7890   54.0890 C   0  0  0  0  0  0  0  0  0  0  0  0
    8.6590   47.4570   53.4640 C   0  0  2  0  0  0  0  0  0  0  0  0
    7.4610   46.4980   53.3370 C   0  0  0  0  0  0  0  0  0  0  0  0
    7.2470   46.4690   51.8540 C   0  0  0  0  0  0  0  0  0  0  0  0
    6.2620   45.6010   51.1100 C   0  0  0  0  0  0  0  0  0  0  0  0
    5.7160   44.4810   51.9430 C   0  0  0  0  0  0  0  0  0  0  0  0
    4.3180   44.9510   51.9400 N   0  0  0  0  0  0  0  0  0  0  0  0
    3.0690   44.5370   52.4880 C   0  0  0  0  0  0  0  0  0  0  0  0
    3.0180   43.4860   53.1790 O   0  0  0  0  0  0  0  0  0  0  0  0
    1.8860   45.3050   52.2210 N   0  0  0  0  0  0  0  0  0  0  0  0
    0.6120   45.0920   52.8470 C   0  0  0  0  0  0  0  0  0  0  0  0
    0.3440   45.0600   54.2050 C   0  0  0  0  0  0  0  0  0  0  0  0
   -1.0260   44.8920   54.2730 C   0  0  0  0  0  0  0  0  0  0  0  0
   -1.8090   44.8000   55.5250 C   0  0  0  0  0  0  0  0  0  0  0  0
   -2.1200   43.5390   56.0650 C   0  0  0  0  0  0  0  0  0  0  0  0
   -2.8460   43.4390   57.2560 C   0  0  0  0  0  0  0  0  0  0  0  0
   -3.2570   44.5960   57.9240 C   0  0  0  0  0  0  0  0  0  0  0  0
   -3.9600   44.4970   59.0800 F   0  0  0  0  0  0  0  0  0  0  0  0
   -2.9370   45.8530   57.4060 C   0  0  0  0  0  0  0  0  0  0  0  0
   -2.2120   45.9570   56.2140 C   0  0  0  0  0  0  0  0  0  0  0  0
   -1.5180   44.8170   53.0130 N   0  0  0  0  0  0  0  0  0  0  0  0
   -2.9030   44.6080   52.6060 C   0  0  0  0  0  0  0  0  0  0  0  0
   -0.5290   44.9540   52.1440 N   0  0  0  0  0  0  0  0  0  0  0  0
    4.8320   46.0570   51.1130 C   0  0  0  0  0  0  0  0  0  0  0  0
    8.0960   47.2050   51.2260 N   0  0  0  0  0  0  0  0  0  0  0  0
    8.9330   47.8160   52.1200 O   0  0  0  0  0  0  0  0  0  0  0  0
    9.8031   46.8321   55.1853 H   0  0  0  0  0  0  0  0  0  0  0  0
    9.9313   45.7387   53.7659 H   0  0  0  0  0  0  0  0  0  0  0  0
   10.7924   47.3151   53.7659 H   0  0  0  0  0  0  0  0  0  0  0  0
    8.4308   48.3097   54.1204 H   0  0  0  0  0  0  0  0  0  0  0  0
    7.7052   45.4985   53.7260 H   0  0  0  0  0  0  0  0  0  0  0  0
    6.5756   46.8132   53.9086 H   0  0  0  0  0  0  0  0  0  0  0  0
    6.8465   45.4851   50.1854 H   0  0  0  0  0  0  0  0  0  0  0  0
    5.8346   43.4982   51.4633 H   0  0  0  0  0  0  0  0  0  0  0  0
    6.1852   44.3109   52.9232 H   0  0  0  0  0  0  0  0  0  0  0  0
    1.9450   46.0510   51.4940 H   0  0  0  0  0  0  0  0  0  0  0  0
    1.0572   45.1480   55.0378 H   0  0  0  0  0  0  0  0  0  0  0  0
   -1.7902   42.6261   55.5474 H   0  0  0  0  0  0  0  0  0  0  0  0
   -3.0938   42.4494   57.6674 H   0  0  0  0  0  0  0  0  0  0  0  0
   -3.2555   46.7627   57.9361 H   0  0  0  0  0  0  0  0  0  0  0  0
   -1.9561   46.9492   55.8140 H   0  0  0  0  0  0  0  0  0  0  0  0
   -3.5373   44.5123   53.4996 H   0  0  0  0  0  0  0  0  0  0  0  0
   -3.2421   45.4651   52.0057 H   0  0  0  0  0  0  0  0  0  0  0  0
   -2.9741   43.6890   52.0057 H   0  0  0  0  0  0  0  0  0  0  0  0
    4.3899   46.0753   50.1059 H   0  0  0  0  0  0  0  0  0  0  0  0
    4.6328   47.0802   51.4643 H   0  0  0  0  0  0  0  0  0  0  0  0
  1  2  1  0
  2  3  1  0
  3  4  1  0
  4  5  1  0
  5  6  1  0
  6  7  1  0
  7  8  1  0
  8  9  2  0
  8 10  1  0
 10 11  1  0
 11 12  1  0
 12 13  2  0
 13 14  1  0
 14 15  2  0
 15 16  1  0
 16 17  2  0
 17 18  1  0
 17 19  1  0
 19 20  2  0
 13 21  1  0
 21 22  1  0
 21 23  1  0
  7 24  1  0
  4 25  2  0
 25 26  1  0
 26  2  1  0
 24  5  1  0
 23 11  2  0
 20 14  1  0
  1 27  1  0
  1 28  1  0
  1 29  1  0
  2 30  1  1
  3 31  1  0
  3 32  1  0
  5 33  1  0
  6 34  1  0
  6 35  1  0
 10 36  1  0
 12 37  1  0
 15 38  1  0
 16 39  1  0
 19 40  1  0
 20 41  1  0
 22 42  1  0
 22 43  1  0
 22 44  1  0
 24 45  1  0
 24 46  1  0
M  END
>  <meeko>  (4) 
{"is_sidechain": [false], "free_energy": -7.817, "intermolecular_energy": -8.711, "internal_energy": -0.481}

$$$$
ligand_74_conformer_1_docked
     RDKit          3D

 46 49  0  0  0  0  0  0  0  0999 V2000
   10.6270   45.7010   51.5580 C   0  0  0  0  0  0  0  0  0  0  0  0
    9.6880   46.8300   51.9790 C   0  0  2  0  0  0  0  0  0  0  0  0
    9.2900   46.7450   53.4640 C   0  0  0  0  0  0  0  0  0  0  0  0
    7.8030   46.5790   53.3740 C   0  0  0  0  0  0  0  0  0  0  0  0
    6.8610   46.3310   54.5260 C   0  0  0  0  0  0  0  0  0  0  0  0
    5.6050   47.1450   54.4470 C   0  0  0  0  0  0  0  0  0  0  0  0
    4.6860   46.0010   54.2920 N   0  0  0  0  0  0  0  0  0  0  0  0
    3.2860   45.7940   54.1280 C   0  0  0  0  0  0  0  0  0  0  0  0
    2.5150   46.7880   54.1000 O   0  0  0  0  0  0  0  0  0  0  0  0
    2.7730   44.4570   54.0260 N   0  0  0  0  0  0  0  0  0  0  0  0
    1.4180   44.1220   53.6910 C   0  0  0  0  0  0  0  0  0  0  0  0
    0.9480   43.6660   52.4710 C   0  0  0  0  0  0  0  0  0  0  0  0
   -0.3970   43.4350   52.6940 C   0  0  0  0  0  0  0  0  0  0  0  0
   -1.3500   42.9290   51.6820 C   0  0  0  0  0  0  0  0  0  0  0  0
   -1.4570   43.5750   50.4370 C   0  0  0  0  0  0  0  0  0  0  0  0
   -2.3440   43.0970   49.4670 C   0  0  0  0  0  0  0  0  0  0  0  0
   -3.1220   41.9650   49.7260 C   0  0  0  0  0  0  0  0  0  0  0  0
   -3.9800   41.5030   48.7830 F   0  0  0  0  0  0  0  0  0  0  0  0
   -3.0080   41.3050   50.9520 C   0  0  0  0  0  0  0  0  0  0  0  0
   -2.1230   41.7810   51.9260 C   0  0  0  0  0  0  0  0  0  0  0  0
   -0.6850   43.7570   53.9770 N   0  0  0  0  0  0  0  0  0  0  0  0
   -1.9840   43.7040   54.6410 C   0  0  0  0  0  0  0  0  0  0  0  0
    0.4160   44.1600   54.5910 N   0  0  0  0  0  0  0  0  0  0  0  0
    5.9070   45.1810   54.3760 C   0  0  0  0  0  0  0  0  0  0  0  0
    7.3900   46.5540   52.1560 N   0  0  0  0  0  0  0  0  0  0  0  0
    8.4490   46.7120   51.3020 O   0  0  0  0  0  0  0  0  0  0  0  0
   11.0351   45.2103   52.4539 H   0  0  0  0  0  0  0  0  0  0  0  0
   10.0705   44.9656   50.9585 H   0  0  0  0  0  0  0  0  0  0  0  0
   11.4515   46.1142   50.9585 H   0  0  0  0  0  0  0  0  0  0  0  0
   10.2358   47.7575   51.7560 H   0  0  0  0  0  0  0  0  0  0  0  0
    9.7604   45.8808   53.9559 H   0  0  0  0  0  0  0  0  0  0  0  0
    9.6059   47.6137   54.0602 H   0  0  0  0  0  0  0  0  0  0  0  0
    7.6078   46.3823   55.3320 H   0  0  0  0  0  0  0  0  0  0  0  0
    5.4143   47.7215   55.3642 H   0  0  0  0  0  0  0  0  0  0  0  0
    5.5637   47.9286   53.6761 H   0  0  0  0  0  0  0  0  0  0  0  0
    3.4210   43.6690   54.2440 H   0  0  0  0  0  0  0  0  0  0  0  0
    1.5141   43.5209   51.5391 H   0  0  0  0  0  0  0  0  0  0  0  0
   -0.8399   44.4606   50.2252 H   0  0  0  0  0  0  0  0  0  0  0  0
   -2.4295   43.6126   48.4991 H   0  0  0  0  0  0  0  0  0  0  0  0
   -3.6149   40.4097   51.1521 H   0  0  0  0  0  0  0  0  0  0  0  0
   -2.0320   41.2540   52.8872 H   0  0  0  0  0  0  0  0  0  0  0  0
   -1.8389   43.7099   55.7314 H   0  0  0  0  0  0  0  0  0  0  0  0
   -2.5826   44.5785   54.3460 H   0  0  0  0  0  0  0  0  0  0  0  0
   -2.5093   42.7837   54.3460 H   0  0  0  0  0  0  0  0  0  0  0  0
    5.9093   44.5109   55.2483 H   0  0  0  0  0  0  0  0  0  0  0  0
    6.0958   44.4776   53.5516 H   0  0  0  0  0  0  0  0  0  0  0  0
  1  2  1  0
  2  3  1  0
  3  4  1  0
  4  5  1  0
  5  6  1  0
  6  7  1  0
  7  8  1  0
  8  9  2  0
  8 10  1  0
 10 11  1  0
 11 12  1  0
 12 13  2  0
 13 14  1  0
 14 15  2  0
 15 16  1  0
 16 17  2  0
 17 18  1  0
 17 19  1  0
 19 20  2  0
 13 21  1  0
 21 22  1  0
 21 23  1  0
  7 24  1  0
  4 25  2  0
 25 26  1  0
 26  2  1  0
 24  5  1  0
 23 11  2  0
 20 14  1  0
  1 27  1  0
  1 28  1  0
  1 29  1  0
  2 30  1  1
  3 31  1  0
  3 32  1  0
  5 33  1  0
  6 34  1  0
  6 35  1  0
 10 36  1  0
 12 37  1  0
 15 38  1  0
 16 39  1  0
 19 40  1  0
 20 41  1  0
 22 42  1  0
 22 43  1  0
 22 44  1  0
 24 45  1  0
 24 46  1  0
M  END
>  <meeko>  (5) 
{"is_sidechain": [false], "free_energy": -7.582, "intermolecular_energy": -8.559, "internal_energy": -0.357}

$$$$
