MODEL 1
REMARK VINA RESULT:    -8.546      0.000      0.000
REMARK INTER + INTRA:         -11.744
REMARK INTER:                 -11.044
REMARK INTRA:                  -0.700
REMARK UNBOUND:                -0.700
REMARK SMILES C[C@@H](NC(=O)c1ccc(Oc2ccc(Cl)cc2)cc1)[C@@H]1CCNC1
REMARK SMILES IDX 6 1 7 2 8 3 9 4 18 5 19 6 4 7 3 8 5 9 2 11 1 12 20 13 21 14
REMARK SMILES IDX 24 15 22 16 23 17 10 19 11 20 12 21 17 22 13 23 16 24 14 25
REMARK SMILES IDX 15 26
REMARK H PARENT 3 10 23 18
ROOT
ATOM      1  C   UNL     1       3.728  43.901  51.124  1.00  0.00     0.040 A 
ATOM      2  C   UNL     1       3.688  45.300  51.258  1.00  0.00     0.017 A 
ATOM      3  C   UNL     1       4.862  46.054  51.178  1.00  0.00     0.048 A 
ATOM      4  C   UNL     1       6.095  45.423  50.942  1.00  0.00     0.127 A 
ATOM      5  C   UNL     1       6.139  44.032  50.817  1.00  0.00     0.048 A 
ATOM      6  C   UNL     1       4.966  43.274  50.897  1.00  0.00     0.017 A 
ENDROOT
BRANCH   1   7
ATOM      7  C   UNL     1       2.476  43.111  51.199  1.00  0.00     0.251 C 
ATOM      8  N   UNL     1       1.290  43.662  51.795  1.00  0.00    -0.349 N 
ATOM      9  O   UNL     1       2.455  41.941  50.726  1.00  0.00    -0.269 OA
ATOM     10  H   UNL     1       1.230  44.696  51.926  1.00  0.00     0.164 HD
BRANCH   8  11
ATOM     11  C   UNL     1       0.150  42.837  52.217  1.00  0.00     0.083 C 
ATOM     12  C   UNL     1      -1.031  43.067  51.269  1.00  0.00     0.031 C 
BRANCH  11  13
ATOM     13  C   UNL     1      -0.248  43.110  53.693  1.00  0.00     0.026 C 
ATOM     14  C   UNL     1      -1.602  43.764  53.896  1.00  0.00     0.022 C 
ATOM     15  C   UNL     1       0.708  44.041  54.430  1.00  0.00     0.086 C 
ATOM     16  C   UNL     1      -1.472  44.445  55.248  1.00  0.00     0.081 C 
ATOM     17  N   UNL     1      -0.049  44.689  55.506  1.00  0.00    -0.316 NA
ATOM     18  H   UNL     1       0.128  45.720  55.469  1.00  0.00     0.122 HD
ENDBRANCH  11  13
ENDBRANCH   8  11
ENDBRANCH   1   7
BRANCH   4  19
ATOM     19  O   UNL     1       7.297  46.144  50.871  1.00  0.00    -0.457 OA
BRANCH  19  20
ATOM     20  C   UNL     1       8.107  46.484  51.964  1.00  0.00     0.127 A 
ATOM     21  C   UNL     1       9.513  46.446  51.890  1.00  0.00     0.048 A 
ATOM     22  C   UNL     1       7.494  46.823  53.176  1.00  0.00     0.048 A 
ATOM     23  C   UNL     1      10.285  46.775  53.009  1.00  0.00     0.024 A 
ATOM     24  C   UNL     1       8.268  47.151  54.293  1.00  0.00     0.024 A 
ATOM     25  C   UNL     1       9.664  47.131  54.210  1.00  0.00     0.041 A 
ATOM     26  Cl  UNL     1      10.634  47.540  55.613  1.00  0.00    -0.084 Cl
ENDBRANCH  19  20
ENDBRANCH   4  19
TORSDOF 5
ENDMDL
MODEL 2
REMARK VINA RESULT:    -8.420      3.630      8.302
REMARK INTER + INTRA:         -11.581
REMARK INTER:                 -11.115
REMARK INTRA:                  -0.467
REMARK UNBOUND:                -0.700
REMARK SMILES C[C@@H](NC(=O)c1ccc(Oc2ccc(Cl)cc2)cc1)[C@@H]1CCNC1
REMARK SMILES IDX 6 1 7 2 8 3 9 4 18 5 19 6 4 7 3 8 5 9 2 11 1 12 20 13 21 14
REMARK SMILES IDX 24 15 22 16 23 17 10 19 11 20 12 21 17 22 13 23 16 24 14 25
REMARK SMILES IDX 15 26
REMARK H PARENT 3 10 23 18
ROOT
ATOM      1  C   UNL     1       5.580  45.050  51.047  1.00  0.00     0.040 A 
ATOM      2  C   UNL     1       4.597  46.051  50.953  1.00  0.00     0.017 A 
ATOM      3  C   UNL     1       3.249  45.742  51.150  1.00  0.00     0.048 A 
ATOM      4  C   UNL     1       2.861  44.429  51.466  1.00  0.00     0.127 A 
ATOM      5  C   UNL     1       3.836  43.430  51.553  1.00  0.00     0.048 A 
ATOM      6  C   UNL     1       5.185  43.735  51.356  1.00  0.00     0.017 A 
ENDROOT
BRANCH   1   7
ATOM      7  C   UNL     1       7.009  45.390  50.848  1.00  0.00     0.251 C 
ATOM      8  N   UNL     1       7.795  45.935  51.921  1.00  0.00    -0.349 N 
ATOM      9  O   UNL     1       7.540  45.188  49.721  1.00  0.00    -0.269 OA
ATOM     10  H   UNL     1       7.441  45.839  52.898  1.00  0.00     0.164 HD
BRANCH   8  11
ATOM     11  C   UNL     1       9.081  46.612  51.705  1.00  0.00     0.083 C 
ATOM     12  C   UNL     1      10.158  45.574  51.371  1.00  0.00     0.031 C 
BRANCH  11  13
ATOM     13  C   UNL     1       9.491  47.480  52.925  1.00  0.00     0.026 C 
ATOM     14  C   UNL     1      10.247  46.755  54.022  1.00  0.00     0.022 C 
ATOM     15  C   UNL     1       8.314  48.108  53.662  1.00  0.00     0.086 C 
ATOM     16  C   UNL     1       9.980  47.596  55.258  1.00  0.00     0.081 C 
ATOM     17  N   UNL     1       8.735  48.343  55.046  1.00  0.00    -0.316 NA
ATOM     18  H   UNL     1       8.001  47.965  55.691  1.00  0.00     0.122 HD
ENDBRANCH  11  13
ENDBRANCH   8  11
ENDBRANCH   1   7
BRANCH   4  19
ATOM     19  O   UNL     1       1.516  44.077  51.655  1.00  0.00    -0.457 OA
BRANCH  19  20
ATOM     20  C   UNL     1       0.811  44.179  52.864  1.00  0.00     0.127 A 
ATOM     21  C   UNL     1      -0.466  43.612  53.032  1.00  0.00     0.048 A 
ATOM     22  C   UNL     1       1.380  44.909  53.914  1.00  0.00     0.048 A 
ATOM     23  C   UNL     1      -1.144  43.752  54.247  1.00  0.00     0.024 A 
ATOM     24  C   UNL     1       0.701  45.048  55.128  1.00  0.00     0.024 A 
ATOM     25  C   UNL     1      -0.560  44.467  55.298  1.00  0.00     0.041 A 
ATOM     26  Cl  UNL     1      -1.413  44.644  56.820  1.00  0.00    -0.084 Cl
ENDBRANCH  19  20
ENDBRANCH   4  19
TORSDOF 5
ENDMDL
MODEL 3
REMARK VINA RESULT:    -7.953      4.859      7.852
REMARK INTER + INTRA:         -10.978
REMARK INTER:                 -10.431
REMARK INTRA:                  -0.547
REMARK UNBOUND:                -0.700
REMARK SMILES C[C@@H](NC(=O)c1ccc(Oc2ccc(Cl)cc2)cc1)[C@@H]1CCNC1
REMARK SMILES IDX 6 1 7 2 8 3 9 4 18 5 19 6 4 7 3 8 5 9 2 11 1 12 20 13 21 14
REMARK SMILES IDX 24 15 22 16 23 17 10 19 11 20 12 21 17 22 13 23 16 24 14 25
REMARK SMILES IDX 15 26
REMARK H PARENT 3 10 23 18
ROOT
ATOM      1  C   UNL     1       6.107  44.596  50.920  1.00  0.00     0.040 A 
ATOM      2  C   UNL     1       5.064  43.691  51.184  1.00  0.00     0.017 A 
ATOM      3  C   UNL     1       4.936  42.517  50.437  1.00  0.00     0.048 A 
ATOM      4  C   UNL     1       5.864  42.217  49.425  1.00  0.00     0.127 A 
ATOM      5  C   UNL     1       6.897  43.119  49.155  1.00  0.00     0.048 A 
ATOM      6  C   UNL     1       7.027  44.295  49.900  1.00  0.00     0.017 A 
ENDROOT
BRANCH   1   7
ATOM      7  C   UNL     1       6.240  45.833  51.726  1.00  0.00     0.251 C 
ATOM      8  N   UNL     1       7.316  45.989  52.667  1.00  0.00    -0.349 N 
ATOM      9  O   UNL     1       5.400  46.762  51.573  1.00  0.00    -0.269 OA
ATOM     10  H   UNL     1       8.144  45.358  52.589  1.00  0.00     0.164 HD
BRANCH   8  11
ATOM     11  C   UNL     1       7.308  47.004  53.728  1.00  0.00     0.083 C 
ATOM     12  C   UNL     1       8.721  47.164  54.297  1.00  0.00     0.031 C 
BRANCH  11  13
ATOM     13  C   UNL     1       6.283  46.668  54.845  1.00  0.00     0.026 C 
ATOM     14  C   UNL     1       5.924  45.200  54.985  1.00  0.00     0.022 C 
ATOM     15  C   UNL     1       4.931  47.348  54.670  1.00  0.00     0.086 C 
ATOM     16  C   UNL     1       4.556  45.228  55.644  1.00  0.00     0.081 C 
ATOM     17  N   UNL     1       3.930  46.522  55.353  1.00  0.00    -0.316 NA
ATOM     18  H   UNL     1       3.122  46.367  54.705  1.00  0.00     0.122 HD
ENDBRANCH  11  13
ENDBRANCH   8  11
ENDBRANCH   1   7
BRANCH   4  19
ATOM     19  O   UNL     1       5.760  41.057  48.643  1.00  0.00    -0.457 OA
BRANCH  19  20
ATOM     20  C   UNL     1       4.971  40.920  47.492  1.00  0.00     0.127 A 
ATOM     21  C   UNL     1       5.331  41.513  46.266  1.00  0.00     0.048 A 
ATOM     22  C   UNL     1       3.767  40.211  47.582  1.00  0.00     0.048 A 
ATOM     23  C   UNL     1       4.508  41.368  45.145  1.00  0.00     0.024 A 
ATOM     24  C   UNL     1       2.945  40.067  46.460  1.00  0.00     0.024 A 
ATOM     25  C   UNL     1       3.316  40.642  45.240  1.00  0.00     0.041 A 
ATOM     26  Cl  UNL     1       2.283  40.462  43.834  1.00  0.00    -0.084 Cl
ENDBRANCH  19  20
ENDBRANCH   4  19
TORSDOF 5
ENDMDL
MODEL 4
REMARK VINA RESULT:    -7.494      5.188      8.432
REMARK INTER + INTRA:         -10.385
REMARK INTER:                  -9.542
REMARK INTRA:                  -0.843
REMARK UNBOUND:                -0.700
REMARK SMILES C[C@@H](NC(=O)c1ccc(Oc2ccc(Cl)cc2)cc1)[C@@H]1CCNC1
REMARK SMILES IDX 6 1 7 2 8 3 9 4 18 5 19 6 4 7 3 8 5 9 2 11 1 12 20 13 21 14
REMARK SMILES IDX 24 15 22 16 23 17 10 19 11 20 12 21 17 22 13 23 16 24 14 25
REMARK SMILES IDX 15 26
REMARK H PARENT 3 10 23 18
ROOT
ATOM      1  C   UNL     1       5.138  43.630  51.406  1.00  0.00     0.040 A 
ATOM      2  C   UNL     1       4.310  42.496  51.338  1.00  0.00     0.017 A 
ATOM      3  C   UNL     1       4.431  41.591  50.279  1.00  0.00     0.048 A 
ATOM      4  C   UNL     1       5.397  41.796  49.279  1.00  0.00     0.127 A 
ATOM      5  C   UNL     1       6.215  42.928  49.340  1.00  0.00     0.048 A 
ATOM      6  C   UNL     1       6.097  43.835  50.397  1.00  0.00     0.017 A 
ENDROOT
BRANCH   1   7
ATOM      7  C   UNL     1       5.009  44.578  52.539  1.00  0.00     0.251 C 
ATOM      8  N   UNL     1       5.340  45.968  52.379  1.00  0.00    -0.349 N 
ATOM      9  O   UNL     1       4.597  44.155  53.653  1.00  0.00    -0.269 OA
ATOM     10  H   UNL     1       5.409  46.358  51.413  1.00  0.00     0.164 HD
BRANCH   8  11
ATOM     11  C   UNL     1       5.576  46.868  53.516  1.00  0.00     0.083 C 
ATOM     12  C   UNL     1       4.447  47.901  53.596  1.00  0.00     0.031 C 
BRANCH  11  13
ATOM     13  C   UNL     1       6.966  47.555  53.433  1.00  0.00     0.026 C 
ATOM     14  C   UNL     1       7.743  47.311  52.153  1.00  0.00     0.022 C 
ATOM     15  C   UNL     1       7.937  47.120  54.524  1.00  0.00     0.086 C 
ATOM     16  C   UNL     1       9.188  47.535  52.563  1.00  0.00     0.081 C 
ATOM     17  N   UNL     1       9.296  47.316  54.009  1.00  0.00    -0.316 NA
ATOM     18  H   UNL     1       9.850  46.443  54.178  1.00  0.00     0.122 HD
ENDBRANCH  11  13
ENDBRANCH   8  11
ENDBRANCH   1   7
BRANCH   4  19
ATOM     19  O   UNL     1       5.538  40.920  48.193  1.00  0.00    -0.457 OA
BRANCH  19  20
ATOM     20  C   UNL     1       4.651  40.815  47.112  1.00  0.00     0.127 A 
ATOM     21  C   UNL     1       3.505  39.999  47.163  1.00  0.00     0.048 A 
ATOM     22  C   UNL     1       4.944  41.509  45.932  1.00  0.00     0.048 A 
ATOM     23  C   UNL     1       2.655  39.908  46.057  1.00  0.00     0.024 A 
ATOM     24  C   UNL     1       4.093  41.417  44.826  1.00  0.00     0.024 A 
ATOM     25  C   UNL     1       2.946  40.620  44.888  1.00  0.00     0.041 A 
ATOM     26  Cl  UNL     1       1.879  40.504  43.501  1.00  0.00    -0.084 Cl
ENDBRANCH  19  20
ENDBRANCH   4  19
TORSDOF 5
ENDMDL
MODEL 5
REMARK VINA RESULT:    -7.460      4.368      8.996
REMARK INTER + INTRA:         -10.341
REMARK INTER:                  -9.624
REMARK INTRA:                  -0.717
REMARK UNBOUND:                -0.700
REMARK SMILES C[C@@H](NC(=O)c1ccc(Oc2ccc(Cl)cc2)cc1)[C@@H]1CCNC1
REMARK SMILES IDX 6 1 7 2 8 3 9 4 18 5 19 6 4 7 3 8 5 9 2 11 1 12 20 13 21 14
REMARK SMILES IDX 24 15 22 16 23 17 10 19 11 20 12 21 17 22 13 23 16 24 14 25
REMARK SMILES IDX 15 26
REMARK H PARENT 3 10 23 18
ROOT
ATOM      1  C   UNL     1       4.523  46.385  53.901  1.00  0.00     0.040 A 
ATOM      2  C   UNL     1       4.202  45.727  55.101  1.00  0.00     0.017 A 
ATOM      3  C   UNL     1       2.891  45.313  55.354  1.00  0.00     0.048 A 
ATOM      4  C   UNL     1       1.882  45.531  54.401  1.00  0.00     0.127 A 
ATOM      5  C   UNL     1       2.197  46.192  53.210  1.00  0.00     0.048 A 
ATOM      6  C   UNL     1       3.507  46.609  52.954  1.00  0.00     0.017 A 
ENDROOT
BRANCH   1   7
ATOM      7  C   UNL     1       5.918  46.811  53.636  1.00  0.00     0.251 C 
ATOM      8  N   UNL     1       6.465  46.763  52.308  1.00  0.00    -0.349 N 
ATOM      9  O   UNL     1       6.628  47.227  54.593  1.00  0.00    -0.269 OA
ATOM     10  H   UNL     1       5.808  46.689  51.499  1.00  0.00     0.164 HD
BRANCH   8  11
ATOM     11  C   UNL     1       7.907  46.825  52.035  1.00  0.00     0.083 C 
ATOM     12  C   UNL     1       8.358  48.288  51.983  1.00  0.00     0.031 C 
BRANCH  11  13
ATOM     13  C   UNL     1       8.283  46.071  50.731  1.00  0.00     0.026 C 
ATOM     14  C   UNL     1       7.291  45.019  50.271  1.00  0.00     0.022 C 
ATOM     15  C   UNL     1       9.597  45.304  50.817  1.00  0.00     0.086 C 
ATOM     16  C   UNL     1       8.132  44.079  49.425  1.00  0.00     0.081 C 
ATOM     17  N   UNL     1       9.530  44.205  49.848  1.00  0.00    -0.316 NA
ATOM     18  H   UNL     1       9.820  43.318  50.325  1.00  0.00     0.122 HD
ENDBRANCH  11  13
ENDBRANCH   8  11
ENDBRANCH   1   7
BRANCH   4  19
ATOM     19  O   UNL     1       0.552  45.144  54.626  1.00  0.00    -0.457 OA
BRANCH  19  20
ATOM     20  C   UNL     1      -0.195  44.288  53.804  1.00  0.00     0.127 A 
ATOM     21  C   UNL     1       0.238  42.985  53.495  1.00  0.00     0.048 A 
ATOM     22  C   UNL     1      -1.383  44.767  53.238  1.00  0.00     0.048 A 
ATOM     23  C   UNL     1      -0.528  42.168  52.657  1.00  0.00     0.024 A 
ATOM     24  C   UNL     1      -2.148  43.949  52.401  1.00  0.00     0.024 A 
ATOM     25  C   UNL     1      -1.723  42.648  52.112  1.00  0.00     0.041 A 
ATOM     26  Cl  UNL     1      -2.681  41.623  51.059  1.00  0.00    -0.084 Cl
ENDBRANCH  19  20
ENDBRANCH   4  19
TORSDOF 5
ENDMDL
