MODEL 1
REMARK VINA RESULT:    -8.726      0.000      0.000
REMARK INTER + INTRA:         -10.480
REMARK INTER:                 -10.256
REMARK INTRA:                  -0.224
REMARK UNBOUND:                -0.224
REMARK SMILES COc1nc(C)cc(N2CCN(C(=O)C3CCCCC3)CC2)n1
REMARK SMILES IDX 3 1 4 2 5 3 6 4 7 5 8 6 23 7 2 8 1 9 9 10 10 11 22 12 11 13
REMARK SMILES IDX 21 14 12 15 13 16 14 17 15 18 16 19 20 20 17 21 19 22 18 23
REMARK H PARENT
ROOT
ATOM      1  C   UNL     1       9.452  47.506  54.893  1.00  0.00     0.318 A 
ATOM      2  N   UNL     1      10.139  47.060  53.807  1.00  0.00    -0.200 NA
ATOM      3  C   UNL     1       9.493  46.514  52.744  1.00  0.00     0.047 A 
ATOM      4  C   UNL     1      10.274  46.059  51.551  1.00  0.00     0.067 C 
ATOM      5  C   UNL     1       8.099  46.413  52.757  1.00  0.00     0.070 A 
ATOM      6  C   UNL     1       7.399  46.864  53.887  1.00  0.00     0.136 A 
ATOM      7  N   UNL     1       8.099  47.407  54.922  1.00  0.00    -0.178 NA
ENDROOT
BRANCH   1   8
ATOM      8  O   UNL     1      10.122  48.068  55.982  1.00  0.00    -0.467 OA
ATOM      9  C   UNL     1      11.338  47.538  56.495  1.00  0.00     0.282 C 
ENDBRANCH   1   8
BRANCH   6  10
ATOM     10  N   UNL     1       5.960  46.794  53.961  1.00  0.00    -0.353 N 
ATOM     11  C   UNL     1       5.347  45.993  55.030  1.00  0.00     0.139 C 
ATOM     12  C   UNL     1       5.112  47.564  53.038  1.00  0.00     0.139 C 
ATOM     13  C   UNL     1       3.847  46.271  55.158  1.00  0.00     0.141 C 
ATOM     14  C   UNL     1       3.854  46.770  52.664  1.00  0.00     0.141 C 
ATOM     15  N   UNL     1       3.202  46.178  53.842  1.00  0.00    -0.339 N 
ATOM     16  C   UNL     1       1.874  45.619  53.739  1.00  0.00     0.225 C 
ATOM     17  O   UNL     1       1.129  45.614  54.757  1.00  0.00    -0.275 OA
BRANCH  16  18
ATOM     18  C   UNL     1       1.392  44.983  52.445  1.00  0.00     0.078 C 
ATOM     19  C   UNL     1       1.957  43.557  52.284  1.00  0.00     0.013 C 
ATOM     20  C   UNL     1      -0.150  44.990  52.287  1.00  0.00     0.013 C 
ATOM     21  C   UNL     1       1.252  42.550  53.201  1.00  0.00     0.001 C 
ATOM     22  C   UNL     1      -0.858  43.930  53.148  1.00  0.00     0.001 C 
ATOM     23  C   UNL     1      -0.255  42.539  52.935  1.00  0.00     0.000 C 
ENDBRANCH  16  18
ENDBRANCH   6  10
TORSDOF 3
ENDMDL
MODEL 2
REMARK VINA RESULT:    -8.512      2.698      8.441
REMARK INTER + INTRA:         -10.228
REMARK INTER:                 -10.015
REMARK INTRA:                  -0.213
REMARK UNBOUND:                -0.224
REMARK SMILES COc1nc(C)cc(N2CCN(C(=O)C3CCCCC3)CC2)n1
REMARK SMILES IDX 3 1 4 2 5 3 6 4 7 5 8 6 23 7 2 8 1 9 9 10 10 11 22 12 11 13
REMARK SMILES IDX 21 14 12 15 13 16 14 17 15 18 16 19 20 20 17 21 19 22 18 23
REMARK H PARENT
ROOT
ATOM      1  C   UNL     1      -0.397  43.553  53.870  1.00  0.00     0.318 A 
ATOM      2  N   UNL     1      -0.601  44.110  55.094  1.00  0.00    -0.200 NA
ATOM      3  C   UNL     1       0.305  44.963  55.637  1.00  0.00     0.047 A 
ATOM      4  C   UNL     1       0.039  45.582  56.972  1.00  0.00     0.067 C 
ATOM      5  C   UNL     1       1.466  45.285  54.926  1.00  0.00     0.070 A 
ATOM      6  C   UNL     1       1.675  44.695  53.670  1.00  0.00     0.136 A 
ATOM      7  N   UNL     1       0.729  43.850  53.173  1.00  0.00    -0.178 NA
ENDROOT
BRANCH   1   8
ATOM      8  O   UNL     1      -1.334  42.677  53.316  1.00  0.00    -0.467 OA
ATOM      9  C   UNL     1      -1.690  42.700  51.939  1.00  0.00     0.282 C 
ENDBRANCH   1   8
BRANCH   6  10
ATOM     10  N   UNL     1       2.848  44.991  52.883  1.00  0.00    -0.353 N 
ATOM     11  C   UNL     1       3.946  44.014  52.862  1.00  0.00     0.139 C 
ATOM     12  C   UNL     1       2.925  46.205  52.056  1.00  0.00     0.139 C 
ATOM     13  C   UNL     1       4.959  44.324  51.757  1.00  0.00     0.141 C 
ATOM     14  C   UNL     1       4.349  46.775  52.058  1.00  0.00     0.141 C 
ATOM     15  N   UNL     1       5.362  45.735  51.822  1.00  0.00    -0.339 N 
ATOM     16  C   UNL     1       6.729  46.099  51.528  1.00  0.00     0.225 C 
ATOM     17  O   UNL     1       7.434  45.321  50.828  1.00  0.00    -0.275 OA
BRANCH  16  18
ATOM     18  C   UNL     1       7.341  47.367  52.100  1.00  0.00     0.078 C 
ATOM     19  C   UNL     1       7.412  47.302  53.640  1.00  0.00     0.013 C 
ATOM     20  C   UNL     1       8.724  47.716  51.495  1.00  0.00     0.013 C 
ATOM     21  C   UNL     1       8.534  46.378  54.127  1.00  0.00     0.001 C 
ATOM     22  C   UNL     1       9.868  46.842  52.038  1.00  0.00     0.001 C 
ATOM     23  C   UNL     1       9.887  46.827  53.569  1.00  0.00     0.000 C 
ENDBRANCH  16  18
ENDBRANCH   6  10
TORSDOF 3
ENDMDL
MODEL 3
REMARK VINA RESULT:    -7.721      2.240      3.061
REMARK INTER + INTRA:          -9.299
REMARK INTER:                  -9.108
REMARK INTRA:                  -0.191
REMARK UNBOUND:                -0.224
REMARK SMILES COc1nc(C)cc(N2CCN(C(=O)C3CCCCC3)CC2)n1
REMARK SMILES IDX 3 1 4 2 5 3 6 4 7 5 8 6 23 7 2 8 1 9 9 10 10 11 22 12 11 13
REMARK SMILES IDX 21 14 12 15 13 16 14 17 15 18 16 19 20 20 17 21 19 22 18 23
REMARK H PARENT
ROOT
ATOM      1  C   UNL     1       7.894  45.666  50.848  1.00  0.00     0.318 A 
ATOM      2  N   UNL     1       8.913  46.168  51.596  1.00  0.00    -0.200 NA
ATOM      3  C   UNL     1       8.691  46.676  52.836  1.00  0.00     0.047 A 
ATOM      4  C   UNL     1       9.837  47.193  53.646  1.00  0.00     0.067 C 
ATOM      5  C   UNL     1       7.395  46.677  53.361  1.00  0.00     0.070 A 
ATOM      6  C   UNL     1       6.347  46.170  52.577  1.00  0.00     0.136 A 
ATOM      7  N   UNL     1       6.630  45.670  51.342  1.00  0.00    -0.178 NA
ENDROOT
BRANCH   1   8
ATOM      8  O   UNL     1       8.130  45.145  49.573  1.00  0.00    -0.467 OA
ATOM      9  C   UNL     1       8.054  43.754  49.285  1.00  0.00     0.282 C 
ENDBRANCH   1   8
BRANCH   6  10
ATOM     10  N   UNL     1       4.989  46.137  53.063  1.00  0.00    -0.353 N 
ATOM     11  C   UNL     1       4.563  44.995  53.885  1.00  0.00     0.139 C 
ATOM     12  C   UNL     1       4.062  47.251  52.812  1.00  0.00     0.139 C 
ATOM     13  C   UNL     1       3.218  45.259  54.568  1.00  0.00     0.141 C 
ATOM     14  C   UNL     1       2.638  46.733  52.578  1.00  0.00     0.141 C 
ATOM     15  N   UNL     1       2.238  45.739  53.586  1.00  0.00    -0.339 N 
ATOM     16  C   UNL     1       0.858  45.327  53.698  1.00  0.00     0.225 C 
ATOM     17  O   UNL     1       0.422  44.938  54.817  1.00  0.00    -0.275 OA
BRANCH  16  18
ATOM     18  C   UNL     1      -0.051  45.296  52.480  1.00  0.00     0.078 C 
ATOM     19  C   UNL     1       0.494  44.331  51.407  1.00  0.00     0.013 C 
ATOM     20  C   UNL     1      -1.530  44.976  52.816  1.00  0.00     0.013 C 
ATOM     21  C   UNL     1       0.266  42.862  51.783  1.00  0.00     0.001 C 
ATOM     22  C   UNL     1      -1.779  43.488  53.120  1.00  0.00     0.001 C 
ATOM     23  C   UNL     1      -1.222  42.587  52.015  1.00  0.00     0.000 C 
ENDBRANCH  16  18
ENDBRANCH   6  10
TORSDOF 3
ENDMDL
MODEL 4
REMARK VINA RESULT:    -7.604      2.305      8.577
REMARK INTER + INTRA:          -9.162
REMARK INTER:                  -9.266
REMARK INTRA:                   0.104
REMARK UNBOUND:                -0.224
REMARK SMILES COc1nc(C)cc(N2CCN(C(=O)C3CCCCC3)CC2)n1
REMARK SMILES IDX 3 1 4 2 5 3 6 4 7 5 8 6 23 7 2 8 1 9 9 10 10 11 22 12 11 13
REMARK SMILES IDX 21 14 12 15 13 16 14 17 15 18 16 19 20 20 17 21 19 22 18 23
REMARK H PARENT
ROOT
ATOM      1  C   UNL     1      -0.885  44.858  53.059  1.00  0.00     0.318 A 
ATOM      2  N   UNL     1      -1.567  44.784  54.233  1.00  0.00    -0.200 NA
ATOM      3  C   UNL     1      -0.916  44.777  55.425  1.00  0.00     0.047 A 
ATOM      4  C   UNL     1      -1.696  44.725  56.700  1.00  0.00     0.067 C 
ATOM      5  C   UNL     1       0.480  44.855  55.452  1.00  0.00     0.070 A 
ATOM      6  C   UNL     1       1.177  44.918  54.236  1.00  0.00     0.136 A 
ATOM      7  N   UNL     1       0.471  44.926  53.071  1.00  0.00    -0.178 NA
ENDROOT
BRANCH   1   8
ATOM      8  O   UNL     1      -1.560  44.866  51.837  1.00  0.00    -0.467 OA
ATOM      9  C   UNL     1      -2.722  45.653  51.605  1.00  0.00     0.282 C 
ENDBRANCH   1   8
BRANCH   6  10
ATOM     10  N   UNL     1       2.617  45.007  54.195  1.00  0.00    -0.353 N 
ATOM     11  C   UNL     1       3.312  45.680  55.302  1.00  0.00     0.139 C 
ATOM     12  C   UNL     1       3.389  44.377  53.114  1.00  0.00     0.139 C 
ATOM     13  C   UNL     1       4.820  45.419  55.266  1.00  0.00     0.141 C 
ATOM     14  C   UNL     1       4.601  45.238  52.738  1.00  0.00     0.141 C 
ATOM     15  N   UNL     1       5.348  45.690  53.922  1.00  0.00    -0.339 N 
ATOM     16  C   UNL     1       6.656  46.285  53.779  1.00  0.00     0.225 C 
ATOM     17  O   UNL     1       7.487  46.177  54.722  1.00  0.00    -0.275 OA
BRANCH  16  18
ATOM     18  C   UNL     1       7.018  47.089  52.540  1.00  0.00     0.078 C 
ATOM     19  C   UNL     1       8.096  48.145  52.860  1.00  0.00     0.013 C 
ATOM     20  C   UNL     1       7.440  46.213  51.333  1.00  0.00     0.013 C 
ATOM     21  C   UNL     1       9.486  47.519  53.026  1.00  0.00     0.001 C 
ATOM     22  C   UNL     1       8.864  45.643  51.458  1.00  0.00     0.001 C 
ATOM     23  C   UNL     1       9.884  46.742  51.768  1.00  0.00     0.000 C 
ENDBRANCH  16  18
ENDBRANCH   6  10
TORSDOF 3
ENDMDL
MODEL 5
REMARK VINA RESULT:    -7.573      6.295      9.188
REMARK INTER + INTRA:          -9.124
REMARK INTER:                  -8.899
REMARK INTRA:                  -0.225
REMARK UNBOUND:                -0.224
REMARK SMILES COc1nc(C)cc(N2CCN(C(=O)C3CCCCC3)CC2)n1
REMARK SMILES IDX 3 1 4 2 5 3 6 4 7 5 8 6 23 7 2 8 1 9 9 10 10 11 22 12 11 13
REMARK SMILES IDX 21 14 12 15 13 16 14 17 15 18 16 19 20 20 17 21 19 22 18 23
REMARK H PARENT
ROOT
ATOM      1  C   UNL     1       3.906  40.101  45.356  1.00  0.00     0.318 A 
ATOM      2  N   UNL     1       3.164  38.966  45.462  1.00  0.00    -0.200 NA
ATOM      3  C   UNL     1       2.795  38.479  46.675  1.00  0.00     0.047 A 
ATOM      4  C   UNL     1       1.954  37.244  46.758  1.00  0.00     0.067 C 
ATOM      5  C   UNL     1       3.174  39.156  47.838  1.00  0.00     0.070 A 
ATOM      6  C   UNL     1       3.950  40.319  47.720  1.00  0.00     0.136 A 
ATOM      7  N   UNL     1       4.288  40.763  46.477  1.00  0.00    -0.178 NA
ENDROOT
BRANCH   1   8
ATOM      8  O   UNL     1       4.281  40.597  44.105  1.00  0.00    -0.467 OA
ATOM      9  C   UNL     1       5.590  40.431  43.572  1.00  0.00     0.282 C 
ENDBRANCH   1   8
BRANCH   6  10
ATOM     10  N   UNL     1       4.369  41.068  48.880  1.00  0.00    -0.353 N 
ATOM     11  C   UNL     1       3.414  41.247  49.984  1.00  0.00     0.139 C 
ATOM     12  C   UNL     1       5.741  41.583  49.001  1.00  0.00     0.139 C 
ATOM     13  C   UNL     1       4.100  41.782  51.244  1.00  0.00     0.141 C 
ATOM     14  C   UNL     1       5.751  42.948  49.700  1.00  0.00     0.141 C 
ATOM     15  N   UNL     1       4.921  42.954  50.915  1.00  0.00    -0.339 N 
ATOM     16  C   UNL     1       5.003  44.051  51.851  1.00  0.00     0.225 C 
ATOM     17  O   UNL     1       4.749  43.840  53.069  1.00  0.00    -0.275 OA
BRANCH  16  18
ATOM     18  C   UNL     1       5.328  45.459  51.379  1.00  0.00     0.078 C 
ATOM     19  C   UNL     1       4.082  46.144  50.780  1.00  0.00     0.013 C 
ATOM     20  C   UNL     1       5.978  46.345  52.472  1.00  0.00     0.013 C 
ATOM     21  C   UNL     1       3.092  46.589  51.863  1.00  0.00     0.001 C 
ATOM     22  C   UNL     1       4.975  46.859  53.520  1.00  0.00     0.001 C 
ATOM     23  C   UNL     1       3.769  47.533  52.861  1.00  0.00     0.000 C 
ENDBRANCH  16  18
ENDBRANCH   6  10
TORSDOF 3
ENDMDL
