MODEL 1
REMARK VINA RESULT:    -8.431      0.000      0.000
REMARK INTER + INTRA:         -13.552
REMARK INTER:                 -12.374
REMARK INTRA:                  -1.178
REMARK UNBOUND:                -1.178
REMARK SMILES CCN(C1CCCCC1)S(=O)(=O)CCNC(=O)Nc1ccn(-c2cccc(F)c2C#N)n1
REMARK SMILES IDX 13 1 10 2 11 3 12 4 3 5 2 6 1 7 4 8 5 9 9 10 6 11 8 12 7 13
REMARK SMILES IDX 14 14 15 15 16 16 17 17 18 18 19 21 20 22 32 23 21 24 22 25
REMARK SMILES IDX 23 26 24 27 29 28 25 29 27 30 30 31 26 32 31 33 28 34
REMARK H PARENT 15 19 18 20
ROOT
ATOM      1  C   UNL     1       2.731  45.016  54.846  1.00  0.00     0.175 C 
ENDROOT
BRANCH   1   2
ATOM      2  S   UNL     1       4.470  45.351  54.564  1.00  0.00     0.216 S 
ATOM      3  O   UNL     1       5.250  44.108  54.889  1.00  0.00    -0.212 OA
ATOM      4  O   UNL     1       4.909  46.457  55.484  1.00  0.00    -0.212 OA
BRANCH   2   5
ATOM      5  N   UNL     1       4.749  45.793  52.885  1.00  0.00    -0.199 NA
BRANCH   5   6
ATOM      6  C   UNL     1       4.016  47.000  52.449  1.00  0.00     0.099 C 
ATOM      7  C   UNL     1       3.107  46.775  51.239  1.00  0.00     0.022 C 
ENDBRANCH   5   6
BRANCH   5   8
ATOM      8  C   UNL     1       6.140  45.680  52.371  1.00  0.00     0.073 C 
ATOM      9  C   UNL     1       6.921  46.968  52.691  1.00  0.00     0.020 C 
ATOM     10  C   UNL     1       6.251  45.354  50.861  1.00  0.00     0.020 C 
ATOM     11  C   UNL     1       8.392  46.841  52.265  1.00  0.00     0.002 C 
ATOM     12  C   UNL     1       7.722  45.200  50.454  1.00  0.00     0.002 C 
ATOM     13  C   UNL     1       8.511  46.475  50.778  1.00  0.00     0.000 C 
ENDBRANCH   5   8
ENDBRANCH   2   5
ENDBRANCH   1   2
BRANCH   1  14
ATOM     14  C   UNL     1       2.121  44.153  53.737  1.00  0.00     0.135 C 
BRANCH  14  15
ATOM     15  N   UNL     1       3.073  43.153  53.255  1.00  0.00    -0.337 N 
ATOM     16  C   UNL     1       3.266  42.874  51.862  1.00  0.00     0.320 C 
ATOM     17  O   UNL     1       2.731  43.613  50.992  1.00  0.00    -0.248 OA
ATOM     18  N   UNL     1       4.040  41.728  51.473  1.00  0.00    -0.291 N 
ATOM     19  H   UNL     1       3.629  42.618  53.959  1.00  0.00     0.165 HD
ATOM     20  H   UNL     1       4.337  41.065  52.223  1.00  0.00     0.173 HD
BRANCH  18  21
ATOM     21  C   UNL     1       4.319  41.353  50.117  1.00  0.00     0.156 A 
ATOM     22  C   UNL     1       5.478  41.606  49.402  1.00  0.00     0.069 A 
ATOM     23  N   UNL     1       3.460  40.639  49.368  1.00  0.00    -0.150 NA
ATOM     24  C   UNL     1       5.252  41.014  48.177  1.00  0.00     0.117 A 
ATOM     25  N   UNL     1       4.025  40.448  48.186  1.00  0.00    -0.237 N 
BRANCH  25  26
ATOM     26  C   UNL     1       3.419  39.712  47.105  1.00  0.00     0.085 A 
ATOM     27  C   UNL     1       2.720  38.520  47.378  1.00  0.00     0.030 A 
ATOM     28  C   UNL     1       3.500  40.164  45.763  1.00  0.00     0.113 A 
ATOM     29  C   UNL     1       2.111  37.799  46.350  1.00  0.00     0.005 A 
ATOM     30  C   UNL     1       2.882  39.429  44.738  1.00  0.00     0.143 A 
ATOM     31  C   UNL     1       4.250  41.346  45.410  1.00  0.00     0.105 C 
ATOM     32  C   UNL     1       2.190  38.253  45.034  1.00  0.00     0.041 A 
ATOM     33  N   UNL     1       4.852  42.293  45.126  1.00  0.00    -0.192 NA
ATOM     34  F   UNL     1       2.959  39.845  43.449  1.00  0.00    -0.205 F 
ENDBRANCH  25  26
ENDBRANCH  18  21
ENDBRANCH  14  15
ENDBRANCH   1  14
TORSDOF 8
ENDMDL
MODEL 2
REMARK VINA RESULT:    -8.388      1.299      1.898
REMARK INTER + INTRA:         -13.488
REMARK INTER:                 -13.662
REMARK INTRA:                   0.174
REMARK UNBOUND:                -1.178
REMARK SMILES CCN(C1CCCCC1)S(=O)(=O)CCNC(=O)Nc1ccn(-c2cccc(F)c2C#N)n1
REMARK SMILES IDX 13 1 10 2 11 3 12 4 3 5 2 6 1 7 4 8 5 9 9 10 6 11 8 12 7 13
REMARK SMILES IDX 14 14 15 15 16 16 17 17 18 18 19 21 20 22 32 23 21 24 22 25
REMARK SMILES IDX 23 26 24 27 29 28 25 29 27 30 30 31 26 32 31 33 28 34
REMARK H PARENT 15 19 18 20
ROOT
ATOM      1  C   UNL     1       3.132  45.803  54.257  1.00  0.00     0.175 C 
ENDROOT
BRANCH   1   2
ATOM      2  S   UNL     1       3.869  46.951  53.094  1.00  0.00     0.216 S 
ATOM      3  O   UNL     1       4.090  48.261  53.798  1.00  0.00    -0.212 OA
ATOM      4  O   UNL     1       2.916  47.166  51.950  1.00  0.00    -0.212 OA
BRANCH   2   5
ATOM      5  N   UNL     1       5.409  46.335  52.511  1.00  0.00    -0.199 NA
BRANCH   5   6
ATOM      6  C   UNL     1       5.400  45.932  51.089  1.00  0.00     0.099 C 
ATOM      7  C   UNL     1       6.421  44.849  50.741  1.00  0.00     0.022 C 
ENDBRANCH   5   6
BRANCH   5   8
ATOM      8  C   UNL     1       6.640  47.040  52.958  1.00  0.00     0.073 C 
ATOM      9  C   UNL     1       7.640  47.137  51.790  1.00  0.00     0.020 C 
ATOM     10  C   UNL     1       7.331  46.420  54.197  1.00  0.00     0.020 C 
ATOM     11  C   UNL     1       8.879  47.951  52.191  1.00  0.00     0.002 C 
ATOM     12  C   UNL     1       8.549  47.258  54.607  1.00  0.00     0.002 C 
ATOM     13  C   UNL     1       9.546  47.368  53.446  1.00  0.00     0.000 C 
ENDBRANCH   5   8
ENDBRANCH   2   5
ENDBRANCH   1   2
BRANCH   1  14
ATOM     14  C   UNL     1       2.245  44.766  53.562  1.00  0.00     0.135 C 
BRANCH  14  15
ATOM     15  N   UNL     1       3.004  43.566  53.209  1.00  0.00    -0.337 N 
ATOM     16  C   UNL     1       3.319  43.219  51.855  1.00  0.00     0.320 C 
ATOM     17  O   UNL     1       3.091  44.039  50.925  1.00  0.00    -0.248 OA
ATOM     18  N   UNL     1       3.862  41.920  51.568  1.00  0.00    -0.291 N 
ATOM     19  H   UNL     1       3.321  42.936  53.979  1.00  0.00     0.165 HD
ATOM     20  H   UNL     1       3.895  41.225  52.346  1.00  0.00     0.173 HD
BRANCH  18  21
ATOM     21  C   UNL     1       4.234  41.461  50.261  1.00  0.00     0.156 A 
ATOM     22  C   UNL     1       5.475  41.577  49.657  1.00  0.00     0.069 A 
ATOM     23  N   UNL     1       3.388  40.793  49.456  1.00  0.00    -0.150 NA
ATOM     24  C   UNL     1       5.314  40.952  48.437  1.00  0.00     0.117 A 
ATOM     25  N   UNL     1       4.044  40.499  48.344  1.00  0.00    -0.237 N 
BRANCH  25  26
ATOM     26  C   UNL     1       3.479  39.772  47.234  1.00  0.00     0.085 A 
ATOM     27  C   UNL     1       2.734  38.602  47.475  1.00  0.00     0.030 A 
ATOM     28  C   UNL     1       3.647  40.214  45.897  1.00  0.00     0.113 A 
ATOM     29  C   UNL     1       2.163  37.891  46.419  1.00  0.00     0.005 A 
ATOM     30  C   UNL     1       3.066  39.488  44.843  1.00  0.00     0.143 A 
ATOM     31  C   UNL     1       4.447  41.372  45.580  1.00  0.00     0.105 C 
ATOM     32  C   UNL     1       2.327  38.333  45.107  1.00  0.00     0.041 A 
ATOM     33  N   UNL     1       5.090  42.301  45.324  1.00  0.00    -0.192 NA
ATOM     34  F   UNL     1       3.226  39.893  43.558  1.00  0.00    -0.205 F 
ENDBRANCH  25  26
ENDBRANCH  18  21
ENDBRANCH  14  15
ENDBRANCH   1  14
TORSDOF 8
ENDMDL
MODEL 3
REMARK VINA RESULT:    -8.249      5.298      7.946
REMARK INTER + INTRA:         -13.285
REMARK INTER:                 -11.779
REMARK INTRA:                  -1.506
REMARK UNBOUND:                -1.178
REMARK SMILES CCN(C1CCCCC1)S(=O)(=O)CCNC(=O)Nc1ccn(-c2cccc(F)c2C#N)n1
REMARK SMILES IDX 13 1 10 2 11 3 12 4 3 5 2 6 1 7 4 8 5 9 9 10 6 11 8 12 7 13
REMARK SMILES IDX 14 14 15 15 16 16 17 17 18 18 19 21 20 22 32 23 21 24 22 25
REMARK SMILES IDX 23 26 24 27 29 28 25 29 27 30 30 31 26 32 31 33 28 34
REMARK H PARENT 15 19 18 20
ROOT
ATOM      1  C   UNL     1      -1.669  43.820  55.883  1.00  0.00     0.175 C 
ENDROOT
BRANCH   1   2
ATOM      2  S   UNL     1      -2.626  43.996  54.377  1.00  0.00     0.216 S 
ATOM      3  O   UNL     1      -2.803  45.462  54.099  1.00  0.00    -0.212 OA
ATOM      4  O   UNL     1      -3.979  43.372  54.584  1.00  0.00    -0.212 OA
BRANCH   2   5
ATOM      5  N   UNL     1      -1.795  43.241  53.025  1.00  0.00    -0.199 NA
BRANCH   5   6
ATOM      6  C   UNL     1      -2.589  43.187  51.780  1.00  0.00     0.099 C 
ATOM      7  C   UNL     1      -2.800  41.774  51.235  1.00  0.00     0.022 C 
ENDBRANCH   5   6
BRANCH   5   8
ATOM      8  C   UNL     1      -0.355  43.567  52.840  1.00  0.00     0.073 C 
ATOM      9  C   UNL     1      -0.158  44.326  51.514  1.00  0.00     0.020 C 
ATOM     10  C   UNL     1       0.601  42.351  52.903  1.00  0.00     0.020 C 
ATOM     11  C   UNL     1       1.303  44.768  51.344  1.00  0.00     0.002 C 
ATOM     12  C   UNL     1       2.059  42.808  52.762  1.00  0.00     0.002 C 
ATOM     13  C   UNL     1       2.262  43.573  51.448  1.00  0.00     0.000 C 
ENDBRANCH   5   8
ENDBRANCH   2   5
ENDBRANCH   1   2
BRANCH   1  14
ATOM     14  C   UNL     1      -1.241  45.175  56.457  1.00  0.00     0.135 C 
BRANCH  14  15
ATOM     15  N   UNL     1      -0.257  45.832  55.598  1.00  0.00    -0.337 N 
ATOM     16  C   UNL     1       1.083  45.348  55.443  1.00  0.00     0.320 C 
ATOM     17  O   UNL     1       1.408  44.228  55.922  1.00  0.00    -0.248 OA
ATOM     18  N   UNL     1       2.055  46.166  54.771  1.00  0.00    -0.291 N 
ATOM     19  H   UNL     1      -0.546  46.693  55.082  1.00  0.00     0.165 HD
ATOM     20  H   UNL     1       1.780  47.142  54.523  1.00  0.00     0.173 HD
BRANCH  18  21
ATOM     21  C   UNL     1       3.419  45.788  54.538  1.00  0.00     0.156 A 
ATOM     22  C   UNL     1       4.280  45.174  55.432  1.00  0.00     0.069 A 
ATOM     23  N   UNL     1       4.028  45.957  53.350  1.00  0.00    -0.150 NA
ATOM     24  C   UNL     1       5.444  45.001  54.712  1.00  0.00     0.117 A 
ATOM     25  N   UNL     1       5.261  45.490  53.465  1.00  0.00    -0.237 N 
BRANCH  25  26
ATOM     26  C   UNL     1       6.231  45.483  52.398  1.00  0.00     0.085 A 
ATOM     27  C   UNL     1       5.988  44.715  51.242  1.00  0.00     0.030 A 
ATOM     28  C   UNL     1       7.426  46.241  52.476  1.00  0.00     0.113 A 
ATOM     29  C   UNL     1       6.903  44.705  50.189  1.00  0.00     0.005 A 
ATOM     30  C   UNL     1       8.339  46.222  51.408  1.00  0.00     0.143 A 
ATOM     31  C   UNL     1       7.760  47.002  53.657  1.00  0.00     0.105 C 
ATOM     32  C   UNL     1       8.075  45.457  50.271  1.00  0.00     0.041 A 
ATOM     33  N   UNL     1       8.029  47.612  54.603  1.00  0.00    -0.192 NA
ATOM     34  F   UNL     1       9.491  46.935  51.474  1.00  0.00    -0.205 F 
ENDBRANCH  25  26
ENDBRANCH  18  21
ENDBRANCH  14  15
ENDBRANCH   1  14
TORSDOF 8
ENDMDL
MODEL 4
REMARK VINA RESULT:    -8.242      4.860      8.272
REMARK INTER + INTRA:         -13.275
REMARK INTER:                 -12.999
REMARK INTRA:                  -0.276
REMARK UNBOUND:                -1.178
REMARK SMILES CCN(C1CCCCC1)S(=O)(=O)CCNC(=O)Nc1ccn(-c2cccc(F)c2C#N)n1
REMARK SMILES IDX 13 1 10 2 11 3 12 4 3 5 2 6 1 7 4 8 5 9 9 10 6 11 8 12 7 13
REMARK SMILES IDX 14 14 15 15 16 16 17 17 18 18 19 21 20 22 32 23 21 24 22 25
REMARK SMILES IDX 23 26 24 27 29 28 25 29 27 30 30 31 26 32 31 33 28 34
REMARK H PARENT 15 19 18 20
ROOT
ATOM      1  C   UNL     1      -0.809  45.273  55.765  1.00  0.00     0.175 C 
ENDROOT
BRANCH   1   2
ATOM      2  S   UNL     1      -2.097  44.180  55.163  1.00  0.00     0.216 S 
ATOM      3  O   UNL     1      -3.378  44.961  55.077  1.00  0.00    -0.212 OA
ATOM      4  O   UNL     1      -2.278  43.053  56.144  1.00  0.00    -0.212 OA
BRANCH   2   5
ATOM      5  N   UNL     1      -1.684  43.558  53.572  1.00  0.00    -0.199 NA
BRANCH   5   6
ATOM      6  C   UNL     1      -2.683  43.861  52.526  1.00  0.00     0.099 C 
ATOM      7  C   UNL     1      -3.397  42.628  51.969  1.00  0.00     0.022 C 
ENDBRANCH   5   6
BRANCH   5   8
ATOM      8  C   UNL     1      -0.265  43.674  53.140  1.00  0.00     0.073 C 
ATOM      9  C   UNL     1      -0.203  44.118  51.667  1.00  0.00     0.020 C 
ATOM     10  C   UNL     1       0.584  42.396  53.346  1.00  0.00     0.020 C 
ATOM     11  C   UNL     1       1.250  44.347  51.221  1.00  0.00     0.002 C 
ATOM     12  C   UNL     1       2.038  42.646  52.926  1.00  0.00     0.002 C 
ATOM     13  C   UNL     1       2.110  43.098  51.462  1.00  0.00     0.000 C 
ENDBRANCH   5   8
ENDBRANCH   2   5
ENDBRANCH   1   2
BRANCH   1  14
ATOM     14  C   UNL     1       0.141  44.567  56.737  1.00  0.00     0.135 C 
BRANCH  14  15
ATOM     15  N   UNL     1       1.414  45.278  56.851  1.00  0.00    -0.337 N 
ATOM     16  C   UNL     1       2.172  45.697  55.709  1.00  0.00     0.320 C 
ATOM     17  O   UNL     1       1.673  45.609  54.554  1.00  0.00    -0.248 OA
ATOM     18  N   UNL     1       3.513  46.181  55.891  1.00  0.00    -0.291 N 
ATOM     19  H   UNL     1       1.784  45.482  57.805  1.00  0.00     0.165 HD
ATOM     20  H   UNL     1       3.934  46.096  56.843  1.00  0.00     0.173 HD
BRANCH  18  21
ATOM     21  C   UNL     1       4.365  46.644  54.834  1.00  0.00     0.156 A 
ATOM     22  C   UNL     1       4.035  47.533  53.825  1.00  0.00     0.069 A 
ATOM     23  N   UNL     1       5.656  46.281  54.728  1.00  0.00    -0.150 NA
ATOM     24  C   UNL     1       5.202  47.667  53.102  1.00  0.00     0.117 A 
ATOM     25  N   UNL     1       6.156  46.895  53.667  1.00  0.00    -0.237 N 
BRANCH  25  26
ATOM     26  C   UNL     1       7.523  46.770  53.225  1.00  0.00     0.085 A 
ATOM     27  C   UNL     1       8.557  47.350  53.984  1.00  0.00     0.030 A 
ATOM     28  C   UNL     1       7.857  46.064  52.041  1.00  0.00     0.113 A 
ATOM     29  C   UNL     1       9.888  47.229  53.586  1.00  0.00     0.005 A 
ATOM     30  C   UNL     1       9.202  45.949  51.652  1.00  0.00     0.143 A 
ATOM     31  C   UNL     1       6.840  45.496  51.189  1.00  0.00     0.105 C 
ATOM     32  C   UNL     1      10.211  46.529  52.424  1.00  0.00     0.041 A 
ATOM     33  N   UNL     1       6.025  45.041  50.504  1.00  0.00    -0.192 NA
ATOM     34  F   UNL     1       9.536  45.284  50.516  1.00  0.00    -0.205 F 
ENDBRANCH  25  26
ENDBRANCH  18  21
ENDBRANCH  14  15
ENDBRANCH   1  14
TORSDOF 8
ENDMDL
MODEL 5
REMARK VINA RESULT:    -8.054      4.063      6.664
REMARK INTER + INTRA:         -12.998
REMARK INTER:                 -11.181
REMARK INTRA:                  -1.817
REMARK UNBOUND:                -1.178
REMARK SMILES CCN(C1CCCCC1)S(=O)(=O)CCNC(=O)Nc1ccn(-c2cccc(F)c2C#N)n1
REMARK SMILES IDX 13 1 10 2 11 3 12 4 3 5 2 6 1 7 4 8 5 9 9 10 6 11 8 12 7 13
REMARK SMILES IDX 14 14 15 15 16 16 17 17 18 18 19 21 20 22 32 23 21 24 22 25
REMARK SMILES IDX 23 26 24 27 29 28 25 29 27 30 30 31 26 32 31 33 28 34
REMARK H PARENT 15 19 18 20
ROOT
ATOM      1  C   UNL     1       5.310  46.772  54.334  1.00  0.00     0.175 C 
ENDROOT
BRANCH   1   2
ATOM      2  S   UNL     1       6.175  45.986  52.973  1.00  0.00     0.216 S 
ATOM      3  O   UNL     1       7.128  44.974  53.542  1.00  0.00    -0.212 OA
ATOM      4  O   UNL     1       6.959  47.031  52.226  1.00  0.00    -0.212 OA
BRANCH   2   5
ATOM      5  N   UNL     1       5.037  45.180  51.902  1.00  0.00    -0.199 NA
BRANCH   5   6
ATOM      6  C   UNL     1       4.446  46.062  50.874  1.00  0.00     0.099 C 
ATOM      7  C   UNL     1       2.980  46.418  51.126  1.00  0.00     0.022 C 
ENDBRANCH   5   6
BRANCH   5   8
ATOM      8  C   UNL     1       5.392  43.814  51.433  1.00  0.00     0.073 C 
ATOM      9  C   UNL     1       6.203  43.906  50.126  1.00  0.00     0.020 C 
ATOM     10  C   UNL     1       4.189  42.858  51.244  1.00  0.00     0.020 C 
ATOM     11  C   UNL     1       6.674  42.516  49.671  1.00  0.00     0.002 C 
ATOM     12  C   UNL     1       4.673  41.466  50.819  1.00  0.00     0.002 C 
ATOM     13  C   UNL     1       5.491  41.549  49.523  1.00  0.00     0.000 C 
ENDBRANCH   5   8
ENDBRANCH   2   5
ENDBRANCH   1   2
BRANCH   1  14
ATOM     14  C   UNL     1       4.780  45.753  55.347  1.00  0.00     0.135 C 
BRANCH  14  15
ATOM     15  N   UNL     1       3.954  44.736  54.698  1.00  0.00    -0.337 N 
ATOM     16  C   UNL     1       2.567  44.939  54.396  1.00  0.00     0.320 C 
ATOM     17  O   UNL     1       2.054  46.083  54.534  1.00  0.00    -0.248 OA
ATOM     18  N   UNL     1       1.766  43.824  53.972  1.00  0.00    -0.291 N 
ATOM     19  H   UNL     1       4.395  43.822  54.451  1.00  0.00     0.165 HD
ATOM     20  H   UNL     1       2.196  42.874  54.015  1.00  0.00     0.173 HD
BRANCH  18  21
ATOM     21  C   UNL     1       0.376  43.902  53.626  1.00  0.00     0.156 A 
ATOM     22  C   UNL     1      -0.663  43.168  54.173  1.00  0.00     0.069 A 
ATOM     23  N   UNL     1      -0.099  44.772  52.716  1.00  0.00    -0.150 NA
ATOM     24  C   UNL     1      -1.785  43.641  53.524  1.00  0.00     0.117 A 
ATOM     25  N   UNL     1      -1.410  44.600  52.649  1.00  0.00    -0.237 N 
BRANCH  25  26
ATOM     26  C   UNL     1      -2.286  45.359  51.791  1.00  0.00     0.085 A 
ATOM     27  C   UNL     1      -2.868  46.549  52.267  1.00  0.00     0.030 A 
ATOM     28  C   UNL     1      -2.573  44.940  50.467  1.00  0.00     0.113 A 
ATOM     29  C   UNL     1      -3.706  47.310  51.450  1.00  0.00     0.005 A 
ATOM     30  C   UNL     1      -3.418  45.715  49.655  1.00  0.00     0.143 A 
ATOM     31  C   UNL     1      -2.054  43.700  49.940  1.00  0.00     0.105 C 
ATOM     32  C   UNL     1      -3.980  46.894  50.147  1.00  0.00     0.041 A 
ATOM     33  N   UNL     1      -1.640  42.705  49.516  1.00  0.00    -0.192 NA
ATOM     34  F   UNL     1      -3.708  45.321  48.389  1.00  0.00    -0.205 F 
ENDBRANCH  25  26
ENDBRANCH  18  21
ENDBRANCH  14  15
ENDBRANCH   1  14
TORSDOF 8
ENDMDL
