ligand_67_conformer_2_docked
     RDKit          3D

 59 61  0  0  0  0  0  0  0  0999 V2000
    6.1540   44.7370   55.2060 C   0  0  0  0  0  0  0  0  0  0  0  0
    6.2910   45.0790   53.7220 C   0  0  0  0  0  0  0  0  0  0  0  0
    6.1360   46.5380   53.5460 N   0  0  0  0  0  0  0  0  0  0  0  0
    7.0430   47.2160   52.5830 C   0  0  0  0  0  0  0  0  0  0  0  0
    8.2350   47.9030   53.3010 C   0  0  0  0  0  0  0  0  0  0  0  0
    9.5100   47.0550   53.3520 C   0  0  0  0  0  0  0  0  0  0  0  0
    9.8950   46.5730   51.9570 C   0  0  0  0  0  0  0  0  0  0  0  0
    8.8050   45.6710   51.3770 C   0  0  0  0  0  0  0  0  0  0  0  0
    7.4310   46.3630   51.3340 C   0  0  0  0  0  0  0  0  0  0  0  0
    4.4670   47.0730   53.4030 S   0  0  0  0  0  0  0  0  0  0  0  0
    4.2840   48.4150   54.0600 O   0  0  0  0  0  0  0  0  0  0  0  0
    4.0440   47.1870   51.9630 O   0  0  0  0  0  0  0  0  0  0  0  0
    3.4210   45.8900   54.2500 C   0  0  0  0  0  0  0  0  0  0  0  0
    2.4980   45.1290   53.2910 C   0  0  0  0  0  0  0  0  0  0  0  0
    2.9900   43.7700   53.0640 N   0  0  0  0  0  0  0  0  0  0  0  0
    3.6870   43.3800   51.8740 C   0  0  0  0  0  0  0  0  0  0  0  0
    4.1700   44.2570   51.1070 O   0  0  0  0  0  0  0  0  0  0  0  0
    3.8290   41.9870   51.5630 N   0  0  0  0  0  0  0  0  0  0  0  0
    4.2300   41.4690   50.2840 C   0  0  0  0  0  0  0  0  0  0  0  0
    5.4720   41.6050   49.6790 C   0  0  0  0  0  0  0  0  0  0  0  0
    5.3260   40.9610   48.4670 C   0  0  0  0  0  0  0  0  0  0  0  0
    4.0630   40.4870   48.3760 N   0  0  0  0  0  0  0  0  0  0  0  0
    3.5150   39.7450   47.2750 C   0  0  0  0  0  0  0  0  0  0  0  0
    2.7500   38.5950   47.5290 C   0  0  0  0  0  0  0  0  0  0  0  0
    2.2290   37.8410   46.4750 C   0  0  0  0  0  0  0  0  0  0  0  0
    2.4580   38.2320   45.1550 C   0  0  0  0  0  0  0  0  0  0  0  0
    3.2020   39.3820   44.8840 C   0  0  0  0  0  0  0  0  0  0  0  0
    3.3960   39.7530   43.5900 F   0  0  0  0  0  0  0  0  0  0  0  0
    3.7360   40.1420   45.9360 C   0  0  0  0  0  0  0  0  0  0  0  0
    4.4560   41.3540   45.6220 C   0  0  0  0  0  0  0  0  0  0  0  0
    5.0280   42.3270   45.3650 N   0  0  0  0  0  0  0  0  0  0  0  0
    3.3900   40.7950   49.4750 N   0  0  0  0  0  0  0  0  0  0  0  0
    6.4954   45.5893   55.8117 H   0  0  0  0  0  0  0  0  0  0  0  0
    5.1003   44.5218   55.4369 H   0  0  0  0  0  0  0  0  0  0  0  0
    6.7677   43.8538   55.4369 H   0  0  0  0  0  0  0  0  0  0  0  0
    7.2829   44.7679   53.3623 H   0  0  0  0  0  0  0  0  0  0  0  0
    5.5155   44.5518   53.1470 H   0  0  0  0  0  0  0  0  0  0  0  0
    6.4534   48.0280   52.1324 H   0  0  0  0  0  0  0  0  0  0  0  0
    8.4642   48.8391   52.7707 H   0  0  0  0  0  0  0  0  0  0  0  0
    7.9236   48.0690   54.3429 H   0  0  0  0  0  0  0  0  0  0  0  0
   10.3304   47.6614   53.7634 H   0  0  0  0  0  0  0  0  0  0  0  0
    9.3254   46.1781   53.9900 H   0  0  0  0  0  0  0  0  0  0  0  0
   10.0312   47.4438   51.2989 H   0  0  0  0  0  0  0  0  0  0  0  0
   10.8300   45.9977   52.0271 H   0  0  0  0  0  0  0  0  0  0  0  0
    9.0895   45.3870   50.3531 H   0  0  0  0  0  0  0  0  0  0  0  0
    8.7163   44.7903   52.0301 H   0  0  0  0  0  0  0  0  0  0  0  0
    7.4186   47.0280   50.4578 H   0  0  0  0  0  0  0  0  0  0  0  0
    6.6943   45.5470   51.2976 H   0  0  0  0  0  0  0  0  0  0  0  0
    4.0612   45.1645   54.7733 H   0  0  0  0  0  0  0  0  0  0  0  0
    2.7851   46.4492   54.9521 H   0  0  0  0  0  0  0  0  0  0  0  0
    1.4887   45.0791   53.7257 H   0  0  0  0  0  0  0  0  0  0  0  0
    2.4749   45.6606   52.3283 H   0  0  0  0  0  0  0  0  0  0  0  0
    2.7610   43.0360   53.7730 H   0  0  0  0  0  0  0  0  0  0  0  0
    3.6380   41.2930   52.3220 H   0  0  0  0  0  0  0  0  0  0  0  0
    6.3660   42.1095   50.0742 H   0  0  0  0  0  0  0  0  0  0  0  0
    6.1082   40.8514   47.7014 H   0  0  0  0  0  0  0  0  0  0  0  0
    2.5594   38.2853   48.5672 H   0  0  0  0  0  0  0  0  0  0  0  0
    1.6374   36.9378   46.6856 H   0  0  0  0  0  0  0  0  0  0  0  0
    2.0516   37.6331   44.3266 H   0  0  0  0  0  0  0  0  0  0  0  0
  1  2  1  0
  2  3  1  0
  3  4  1  0
  4  5  1  0
  5  6  1  0
  6  7  1  0
  7  8  1  0
  8  9  1  0
  3 10  1  0
 10 11  2  0
 10 12  2  0
 10 13  1  0
 13 14  1  0
 14 15  1  0
 15 16  1  0
 16 17  2  0
 16 18  1  0
 18 19  1  0
 19 20  1  0
 20 21  2  0
 21 22  1  0
 22 23  1  0
 23 24  2  0
 24 25  1  0
 25 26  2  0
 26 27  1  0
 27 28  1  0
 27 29  2  0
 29 30  1  0
 30 31  3  0
 22 32  1  0
  9  4  1  0
 32 19  2  0
 29 23  1  0
  1 33  1  0
  1 34  1  0
  1 35  1  0
  2 36  1  0
  2 37  1  0
  4 38  1  0
  5 39  1  0
  5 40  1  0
  6 41  1  0
  6 42  1  0
  7 43  1  0
  7 44  1  0
  8 45  1  0
  8 46  1  0
  9 47  1  0
  9 48  1  0
 13 49  1  0
 13 50  1  0
 14 51  1  0
 14 52  1  0
 15 53  1  0
 18 54  1  0
 20 55  1  0
 21 56  1  0
 24 57  1  0
 25 58  1  0
 26 59  1  0
M  END
>  <meeko>  (1) 
{"is_sidechain": [false], "free_energy": -9.113, "intermolecular_energy": -13.375, "internal_energy": -0.291}

$$$$
ligand_67_conformer_2_docked
     RDKit          3D

 59 61  0  0  0  0  0  0  0  0999 V2000
   -3.7910   44.2130   53.1250 C   0  0  0  0  0  0  0  0  0  0  0  0
   -2.8560   45.2330   53.7780 C   0  0  0  0  0  0  0  0  0  0  0  0
   -1.8550   44.5160   54.5950 N   0  0  0  0  0  0  0  0  0  0  0  0
   -0.5190   44.2750   53.9910 C   0  0  0  0  0  0  0  0  0  0  0  0
   -0.2480   42.7610   53.7770 C   0  0  0  0  0  0  0  0  0  0  0  0
   -0.5780   42.2580   52.3680 C   0  0  0  0  0  0  0  0  0  0  0  0
    0.1210   43.1100   51.3130 C   0  0  0  0  0  0  0  0  0  0  0  0
   -0.3680   44.5570   51.3750 C   0  0  0  0  0  0  0  0  0  0  0  0
   -0.1760   45.1830   52.7680 C   0  0  0  0  0  0  0  0  0  0  0  0
   -1.7610   45.0660   56.2630 S   0  0  0  0  0  0  0  0  0  0  0  0
   -2.9490   45.9240   56.6040 O   0  0  0  0  0  0  0  0  0  0  0  0
   -1.7190   43.9080   57.2240 O   0  0  0  0  0  0  0  0  0  0  0  0
   -0.2830   46.0610   56.4460 C   0  0  0  0  0  0  0  0  0  0  0  0
    0.8540   45.3020   57.1410 C   0  0  0  0  0  0  0  0  0  0  0  0
    1.6560   44.5590   56.1660 N   0  0  0  0  0  0  0  0  0  0  0  0
    2.7330   45.1510   55.4280 C   0  0  0  0  0  0  0  0  0  0  0  0
    3.2300   46.2480   55.8040 O   0  0  0  0  0  0  0  0  0  0  0  0
    3.2380   44.4870   54.2620 N   0  0  0  0  0  0  0  0  0  0  0  0
    4.0900   45.0940   53.2770 C   0  0  0  0  0  0  0  0  0  0  0  0
    3.6920   45.8080   52.1540 C   0  0  0  0  0  0  0  0  0  0  0  0
    4.8780   46.1420   51.5330 C   0  0  0  0  0  0  0  0  0  0  0  0
    5.9040   45.6400   52.2560 N   0  0  0  0  0  0  0  0  0  0  0  0
    7.3010   45.7810   51.9530 C   0  0  0  0  0  0  0  0  0  0  0  0
    7.8040   45.2550   50.7510 C   0  0  0  0  0  0  0  0  0  0  0  0
    9.1640   45.3550   50.4460 C   0  0  0  0  0  0  0  0  0  0  0  0
   10.0340   45.9910   51.3310 C   0  0  0  0  0  0  0  0  0  0  0  0
    9.5500   46.5350   52.5230 C   0  0  0  0  0  0  0  0  0  0  0  0
   10.4140   47.1650   53.3610 F   0  0  0  0  0  0  0  0  0  0  0  0
    8.1870   46.4320   52.8430 C   0  0  0  0  0  0  0  0  0  0  0  0
    7.7090   47.0510   54.0570 C   0  0  0  0  0  0  0  0  0  0  0  0
    7.3310   47.5530   55.0290 N   0  0  0  0  0  0  0  0  0  0  0  0
    5.4320   44.9980   53.3150 N   0  0  0  0  0  0  0  0  0  0  0  0
   -4.3142   43.6423   53.9064 H   0  0  0  0  0  0  0  0  0  0  0  0
   -4.5276   44.7386   52.4996 H   0  0  0  0  0  0  0  0  0  0  0  0
   -3.2035   43.5248   52.4996 H   0  0  0  0  0  0  0  0  0  0  0  0
   -2.3453   45.8170   52.9981 H   0  0  0  0  0  0  0  0  0  0  0  0
   -3.4377   45.9138   54.4169 H   0  0  0  0  0  0  0  0  0  0  0  0
    0.2146   44.6109   54.7386 H   0  0  0  0  0  0  0  0  0  0  0  0
    0.8179   42.5704   53.9707 H   0  0  0  0  0  0  0  0  0  0  0  0
   -0.9098   42.2200   54.4693 H   0  0  0  0  0  0  0  0  0  0  0  0
   -0.2431   41.2149   52.2695 H   0  0  0  0  0  0  0  0  0  0  0  0
   -1.6650   42.3264   52.2140 H   0  0  0  0  0  0  0  0  0  0  0  0
    1.2061   43.0877   51.4920 H   0  0  0  0  0  0  0  0  0  0  0  0
   -0.1106   42.7011   50.3184 H   0  0  0  0  0  0  0  0  0  0  0  0
    0.1945   45.1516   50.6401 H   0  0  0  0  0  0  0  0  0  0  0  0
   -1.4455   44.5563   51.1537 H   0  0  0  0  0  0  0  0  0  0  0  0
    0.8789   45.4813   52.8582 H   0  0  0  0  0  0  0  0  0  0  0  0
   -0.8912   46.0174   52.8142 H   0  0  0  0  0  0  0  0  0  0  0  0
    0.0589   46.3717   55.4477 H   0  0  0  0  0  0  0  0  0  0  0  0
   -0.5390   46.9273   57.0737 H   0  0  0  0  0  0  0  0  0  0  0  0
    1.4998   46.0214   57.6658 H   0  0  0  0  0  0  0  0  0  0  0  0
    0.4167   44.5883   57.8547 H   0  0  0  0  0  0  0  0  0  0  0  0
    1.3840   43.5740   55.9510 H   0  0  0  0  0  0  0  0  0  0  0  0
    2.9790   43.4840   54.1180 H   0  0  0  0  0  0  0  0  0  0  0  0
    2.6681   46.0510   51.8338 H   0  0  0  0  0  0  0  0  0  0  0  0
    4.9730   46.7214   50.6028 H   0  0  0  0  0  0  0  0  0  0  0  0
    7.1215   44.7604   50.0442 H   0  0  0  0  0  0  0  0  0  0  0  0
    9.5488   44.9315   49.5066 H   0  0  0  0  0  0  0  0  0  0  0  0
   11.1047   46.0645   51.0897 H   0  0  0  0  0  0  0  0  0  0  0  0
  1  2  1  0
  2  3  1  0
  3  4  1  0
  4  5  1  0
  5  6  1  0
  6  7  1  0
  7  8  1  0
  8  9  1  0
  3 10  1  0
 10 11  2  0
 10 12  2  0
 10 13  1  0
 13 14  1  0
 14 15  1  0
 15 16  1  0
 16 17  2  0
 16 18  1  0
 18 19  1  0
 19 20  1  0
 20 21  2  0
 21 22  1  0
 22 23  1  0
 23 24  2  0
 24 25  1  0
 25 26  2  0
 26 27  1  0
 27 28  1  0
 27 29  2  0
 29 30  1  0
 30 31  3  0
 22 32  1  0
  9  4  1  0
 32 19  2  0
 29 23  1  0
  1 33  1  0
  1 34  1  0
  1 35  1  0
  2 36  1  0
  2 37  1  0
  4 38  1  0
  5 39  1  0
  5 40  1  0
  6 41  1  0
  6 42  1  0
  7 43  1  0
  7 44  1  0
  8 45  1  0
  8 46  1  0
  9 47  1  0
  9 48  1  0
 13 49  1  0
 13 50  1  0
 14 51  1  0
 14 52  1  0
 15 53  1  0
 18 54  1  0
 20 55  1  0
 21 56  1  0
 24 57  1  0
 25 58  1  0
 26 59  1  0
M  END
>  <meeko>  (2) 
{"is_sidechain": [false], "free_energy": -8.777, "intermolecular_energy": -11.876, "internal_energy": -1.297}

$$$$
ligand_67_conformer_2_docked
     RDKit          3D

 59 61  0  0  0  0  0  0  0  0999 V2000
   -2.1820   43.4950   51.2860 C   0  0  0  0  0  0  0  0  0  0  0  0
   -1.8260   44.6170   52.2630 C   0  0  0  0  0  0  0  0  0  0  0  0
   -1.0990   44.0420   53.4150 N   0  0  0  0  0  0  0  0  0  0  0  0
    0.3760   44.2210   53.4550 C   0  0  0  0  0  0  0  0  0  0  0  0
    1.1250   42.8710   53.2920 C   0  0  0  0  0  0  0  0  0  0  0  0
    1.5620   42.5640   51.8570 C   0  0  0  0  0  0  0  0  0  0  0  0
    2.3630   43.7260   51.2760 C   0  0  0  0  0  0  0  0  0  0  0  0
    1.5060   44.9900   51.2020 C   0  0  0  0  0  0  0  0  0  0  0  0
    0.9220   45.3850   52.5700 C   0  0  0  0  0  0  0  0  0  0  0  0
   -1.8650   44.3360   54.9700 S   0  0  0  0  0  0  0  0  0  0  0  0
   -3.2470   44.8990   54.7800 O   0  0  0  0  0  0  0  0  0  0  0  0
   -1.9740   43.0720   55.7800 O   0  0  0  0  0  0  0  0  0  0  0  0
   -0.8870   45.5440   55.8600 C   0  0  0  0  0  0  0  0  0  0  0  0
   -0.0780   44.9190   57.0030 C   0  0  0  0  0  0  0  0  0  0  0  0
    1.2430   44.4980   56.5340 N   0  0  0  0  0  0  0  0  0  0  0  0
    2.2500   45.4220   56.1010 C   0  0  0  0  0  0  0  0  0  0  0  0
    2.1510   46.6460   56.3890 O   0  0  0  0  0  0  0  0  0  0  0  0
    3.3680   44.9430   55.3410 N   0  0  0  0  0  0  0  0  0  0  0  0
    4.2740   45.7780   54.6000 C   0  0  0  0  0  0  0  0  0  0  0  0
    3.9490   46.8860   53.8310 C   0  0  0  0  0  0  0  0  0  0  0  0
    5.1610   47.3020   53.3160 C   0  0  0  0  0  0  0  0  0  0  0  0
    6.1300   46.4710   53.7600 N   0  0  0  0  0  0  0  0  0  0  0  0
    7.5310   46.5710   53.4620 C   0  0  0  0  0  0  0  0  0  0  0  0
    8.4010   47.1360   54.4100 C   0  0  0  0  0  0  0  0  0  0  0  0
    9.7640   47.2700   54.1330 C   0  0  0  0  0  0  0  0  0  0  0  0
   10.2750   46.8310   52.9120 C   0  0  0  0  0  0  0  0  0  0  0  0
    9.4300   46.2510   51.9650 C   0  0  0  0  0  0  0  0  0  0  0  0
    9.9540   45.8140   50.7890 F   0  0  0  0  0  0  0  0  0  0  0  0
    8.0570   46.1190   52.2300 C   0  0  0  0  0  0  0  0  0  0  0  0
    7.2200   45.4670   51.2510 C   0  0  0  0  0  0  0  0  0  0  0  0
    6.5530   44.9390   50.4650 N   0  0  0  0  0  0  0  0  0  0  0  0
    5.5980   45.5400   54.5380 N   0  0  0  0  0  0  0  0  0  0  0  0
   -2.4676   42.5947   51.8499 H   0  0  0  0  0  0  0  0  0  0  0  0
   -3.0233   43.8134   50.6528 H   0  0  0  0  0  0  0  0  0  0  0  0
   -1.3111   43.2701   50.6528 H   0  0  0  0  0  0  0  0  0  0  0  0
   -1.1887   45.3574   51.7574 H   0  0  0  0  0  0  0  0  0  0  0  0
   -2.7452   45.1096   52.6129 H   0  0  0  0  0  0  0  0  0  0  0  0
    0.6085   44.5757   54.4699 H   0  0  0  0  0  0  0  0  0  0  0  0
    2.0222   42.8955   53.9279 H   0  0  0  0  0  0  0  0  0  0  0  0
    0.4176   42.0804   53.5826 H   0  0  0  0  0  0  0  0  0  0  0  0
    2.1867   41.6586   51.8558 H   0  0  0  0  0  0  0  0  0  0  0  0
    0.6647   42.4098   51.2397 H   0  0  0  0  0  0  0  0  0  0  0  0
    3.2361   43.9188   51.9168 H   0  0  0  0  0  0  0  0  0  0  0  0
    2.6871   43.4586   50.2594 H   0  0  0  0  0  0  0  0  0  0  0  0
    2.1288   45.8177   50.8317 H   0  0  0  0  0  0  0  0  0  0  0  0
    0.6638   44.7845   50.5250 H   0  0  0  0  0  0  0  0  0  0  0  0
    1.7150   45.8934   53.1380 H   0  0  0  0  0  0  0  0  0  0  0  0
    0.0483   46.0138   52.3436 H   0  0  0  0  0  0  0  0  0  0  0  0
   -0.1905   46.0220   55.1554 H   0  0  0  0  0  0  0  0  0  0  0  0
   -1.5804   46.2744   56.3023 H   0  0  0  0  0  0  0  0  0  0  0  0
    0.0438   45.6605   57.8063 H   0  0  0  0  0  0  0  0  0  0  0  0
   -0.6180   44.0362   57.3760 H   0  0  0  0  0  0  0  0  0  0  0  0
    1.4340   43.4740   56.4480 H   0  0  0  0  0  0  0  0  0  0  0  0
    3.5470   43.9130   55.3270 H   0  0  0  0  0  0  0  0  0  0  0  0
    2.9559   47.3303   53.6690 H   0  0  0  0  0  0  0  0  0  0  0  0
    5.3127   48.1670   52.6537 H   0  0  0  0  0  0  0  0  0  0  0  0
    8.0055   47.4757   55.3786 H   0  0  0  0  0  0  0  0  0  0  0  0
   10.4345   47.7221   54.8787 H   0  0  0  0  0  0  0  0  0  0  0  0
   11.3476   46.9423   52.6947 H   0  0  0  0  0  0  0  0  0  0  0  0
  1  2  1  0
  2  3  1  0
  3  4  1  0
  4  5  1  0
  5  6  1  0
  6  7  1  0
  7  8  1  0
  8  9  1  0
  3 10  1  0
 10 11  2  0
 10 12  2  0
 10 13  1  0
 13 14  1  0
 14 15  1  0
 15 16  1  0
 16 17  2  0
 16 18  1  0
 18 19  1  0
 19 20  1  0
 20 21  2  0
 21 22  1  0
 22 23  1  0
 23 24  2  0
 24 25  1  0
 25 26  2  0
 26 27  1  0
 27 28  1  0
 27 29  2  0
 29 30  1  0
 30 31  3  0
 22 32  1  0
  9  4  1  0
 32 19  2  0
 29 23  1  0
  1 33  1  0
  1 34  1  0
  1 35  1  0
  2 36  1  0
  2 37  1  0
  4 38  1  0
  5 39  1  0
  5 40  1  0
  6 41  1  0
  6 42  1  0
  7 43  1  0
  7 44  1  0
  8 45  1  0
  8 46  1  0
  9 47  1  0
  9 48  1  0
 13 49  1  0
 13 50  1  0
 14 51  1  0
 14 52  1  0
 15 53  1  0
 18 54  1  0
 20 55  1  0
 21 56  1  0
 24 57  1  0
 25 58  1  0
 26 59  1  0
M  END
>  <meeko>  (3) 
{"is_sidechain": [false], "free_energy": -8.641, "intermolecular_energy": -11.644, "internal_energy": -1.33}

$$$$
ligand_67_conformer_2_docked
     RDKit          3D

 59 61  0  0  0  0  0  0  0  0999 V2000
    3.2780   45.9160   50.4770 C   0  0  0  0  0  0  0  0  0  0  0  0
    2.5230   45.3420   51.6770 C   0  0  0  0  0  0  0  0  0  0  0  0
    2.0070   44.0020   51.3270 N   0  0  0  0  0  0  0  0  0  0  0  0
    2.8020   42.8230   51.7620 C   0  0  0  0  0  0  0  0  0  0  0  0
    2.6520   41.6320   50.7780 C   0  0  0  0  0  0  0  0  0  0  0  0
    3.7630   41.5420   49.7270 C   0  0  0  0  0  0  0  0  0  0  0  0
    5.1370   41.5540   50.3910 C   0  0  0  0  0  0  0  0  0  0  0  0
    5.3630   42.8670   51.1410 C   0  0  0  0  0  0  0  0  0  0  0  0
    4.2700   43.1420   52.1890 C   0  0  0  0  0  0  0  0  0  0  0  0
    0.2820   43.8000   51.6010 S   0  0  0  0  0  0  0  0  0  0  0  0
   -0.3730   45.1330   51.8460 O   0  0  0  0  0  0  0  0  0  0  0  0
   -0.3920   43.1490   50.4230 O   0  0  0  0  0  0  0  0  0  0  0  0
    0.0580   42.7900   53.0630 C   0  0  0  0  0  0  0  0  0  0  0  0
   -0.0330   43.6250   54.3460 C   0  0  0  0  0  0  0  0  0  0  0  0
    1.2830   43.7650   54.9700 N   0  0  0  0  0  0  0  0  0  0  0  0
    2.0970   44.9360   54.8210 C   0  0  0  0  0  0  0  0  0  0  0  0
    1.5890   46.0110   54.3990 O   0  0  0  0  0  0  0  0  0  0  0  0
    3.4900   44.8740   55.1560 N   0  0  0  0  0  0  0  0  0  0  0  0
    4.4680   45.8590   54.7810 C   0  0  0  0  0  0  0  0  0  0  0  0
    4.2480   47.2100   54.5520 C   0  0  0  0  0  0  0  0  0  0  0  0
    5.4900   47.6960   54.1960 C   0  0  0  0  0  0  0  0  0  0  0  0
    6.3760   46.6750   54.2110 N   0  0  0  0  0  0  0  0  0  0  0  0
    7.7780   46.7680   53.9120 C   0  0  0  0  0  0  0  0  0  0  0  0
    8.6760   47.1480   54.9230 C   0  0  0  0  0  0  0  0  0  0  0  0
   10.0410   47.2720   54.6510 C   0  0  0  0  0  0  0  0  0  0  0  0
   10.5250   47.0080   53.3700 C   0  0  0  0  0  0  0  0  0  0  0  0
    9.6500   46.6120   52.3570 C   0  0  0  0  0  0  0  0  0  0  0  0
   10.1480   46.3430   51.1210 F   0  0  0  0  0  0  0  0  0  0  0  0
    8.2760   46.4920   52.6170 C   0  0  0  0  0  0  0  0  0  0  0  0
    7.4060   46.0300   51.5620 C   0  0  0  0  0  0  0  0  0  0  0  0
    6.7130   45.6550   50.7130 N   0  0  0  0  0  0  0  0  0  0  0  0
    5.7610   45.5550   54.5620 N   0  0  0  0  0  0  0  0  0  0  0  0
    4.1067   46.5460   50.8324 H   0  0  0  0  0  0  0  0  0  0  0  0
    3.6787   45.0924   49.8678 H   0  0  0  0  0  0  0  0  0  0  0  0
    2.5916   46.5224   49.8678 H   0  0  0  0  0  0  0  0  0  0  0  0
    3.2044   45.2614   52.5368 H   0  0  0  0  0  0  0  0  0  0  0  0
    1.6855   46.0049   51.9398 H   0  0  0  0  0  0  0  0  0  0  0  0
    2.3540   42.4895   52.7097 H   0  0  0  0  0  0  0  0  0  0  0  0
    2.6532   40.6998   51.3620 H   0  0  0  0  0  0  0  0  0  0  0  0
    1.7112   41.7908   50.2306 H   0  0  0  0  0  0  0  0  0  0  0  0
    3.6458   40.6086   49.1569 H   0  0  0  0  0  0  0  0  0  0  0  0
    3.6868   42.4111   49.0570 H   0  0  0  0  0  0  0  0  0  0  0  0
    5.2022   40.7166   51.1012 H   0  0  0  0  0  0  0  0  0  0  0  0
    5.9072   41.4544   49.6120 H   0  0  0  0  0  0  0  0  0  0  0  0
    6.3366   42.8192   51.6507 H   0  0  0  0  0  0  0  0  0  0  0  0
    5.3325   43.6829   50.4038 H   0  0  0  0  0  0  0  0  0  0  0  0
    4.4990   42.5362   53.0781 H   0  0  0  0  0  0  0  0  0  0  0  0
    4.2951   44.2285   52.3590 H   0  0  0  0  0  0  0  0  0  0  0  0
   -0.8706   42.2108   52.9526 H   0  0  0  0  0  0  0  0  0  0  0  0
    0.9361   42.1337   53.1533 H   0  0  0  0  0  0  0  0  0  0  0  0
   -0.4231   44.6235   54.0994 H   0  0  0  0  0  0  0  0  0  0  0  0
   -0.7050   43.1146   55.0516 H   0  0  0  0  0  0  0  0  0  0  0  0
    1.6740   42.9470   55.4890 H   0  0  0  0  0  0  0  0  0  0  0  0
    3.8240   44.0610   55.7210 H   0  0  0  0  0  0  0  0  0  0  0  0
    3.3021   47.7654   54.6350 H   0  0  0  0  0  0  0  0  0  0  0  0
    5.7207   48.7411   53.9421 H   0  0  0  0  0  0  0  0  0  0  0  0
    8.3016   47.3497   55.9375 H   0  0  0  0  0  0  0  0  0  0  0  0
   10.7345   47.5782   55.4481 H   0  0  0  0  0  0  0  0  0  0  0  0
   11.5992   47.1121   53.1573 H   0  0  0  0  0  0  0  0  0  0  0  0
  1  2  1  0
  2  3  1  0
  3  4  1  0
  4  5  1  0
  5  6  1  0
  6  7  1  0
  7  8  1  0
  8  9  1  0
  3 10  1  0
 10 11  2  0
 10 12  2  0
 10 13  1  0
 13 14  1  0
 14 15  1  0
 15 16  1  0
 16 17  2  0
 16 18  1  0
 18 19  1  0
 19 20  1  0
 20 21  2  0
 21 22  1  0
 22 23  1  0
 23 24  2  0
 24 25  1  0
 25 26  2  0
 26 27  1  0
 27 28  1  0
 27 29  2  0
 29 30  1  0
 30 31  3  0
 22 32  1  0
  9  4  1  0
 32 19  2  0
 29 23  1  0
  1 33  1  0
  1 34  1  0
  1 35  1  0
  2 36  1  0
  2 37  1  0
  4 38  1  0
  5 39  1  0
  5 40  1  0
  6 41  1  0
  6 42  1  0
  7 43  1  0
  7 44  1  0
  8 45  1  0
  8 46  1  0
  9 47  1  0
  9 48  1  0
 13 49  1  0
 13 50  1  0
 14 51  1  0
 14 52  1  0
 15 53  1  0
 18 54  1  0
 20 55  1  0
 21 56  1  0
 24 57  1  0
 25 58  1  0
 26 59  1  0
M  END
>  <meeko>  (4) 
{"is_sidechain": [false], "free_energy": -8.601, "intermolecular_energy": -12.066, "internal_energy": -0.848}

$$$$
ligand_67_conformer_2_docked
     RDKit          3D

 59 61  0  0  0  0  0  0  0  0999 V2000
    0.3450   44.7010   51.6870 C   0  0  0  0  0  0  0  0  0  0  0  0
   -0.4090   43.7390   52.6060 C   0  0  0  0  0  0  0  0  0  0  0  0
   -1.6740   44.3710   53.0340 N   0  0  0  0  0  0  0  0  0  0  0  0
   -2.8960   44.0690   52.2420 C   0  0  0  0  0  0  0  0  0  0  0  0
   -3.4140   45.3190   51.4820 C   0  0  0  0  0  0  0  0  0  0  0  0
   -2.9330   45.4150   50.0310 C   0  0  0  0  0  0  0  0  0  0  0  0
   -3.2420   44.1270   49.2730 C   0  0  0  0  0  0  0  0  0  0  0  0
   -2.4980   42.9440   49.8920 C   0  0  0  0  0  0  0  0  0  0  0  0
   -2.8190   42.7650   51.3870 C   0  0  0  0  0  0  0  0  0  0  0  0
   -1.9550   44.3190   54.7690 S   0  0  0  0  0  0  0  0  0  0  0  0
   -3.4000   44.6010   55.0790 O   0  0  0  0  0  0  0  0  0  0  0  0
   -1.5980   42.9760   55.3460 O   0  0  0  0  0  0  0  0  0  0  0  0
   -0.9600   45.5940   55.5390 C   0  0  0  0  0  0  0  0  0  0  0  0
    0.2280   45.0210   56.3210 C   0  0  0  0  0  0  0  0  0  0  0  0
    1.2020   44.4110   55.4150 N   0  0  0  0  0  0  0  0  0  0  0  0
    2.4230   45.0570   55.0320 C   0  0  0  0  0  0  0  0  0  0  0  0
    2.8520   46.0420   55.6930 O   0  0  0  0  0  0  0  0  0  0  0  0
    3.1510   44.5740   53.8950 N   0  0  0  0  0  0  0  0  0  0  0  0
    4.2050   45.2910   53.2300 C   0  0  0  0  0  0  0  0  0  0  0  0
    4.1330   45.9330   52.0020 C   0  0  0  0  0  0  0  0  0  0  0  0
    5.4060   46.4300   51.8090 C   0  0  0  0  0  0  0  0  0  0  0  0
    6.1720   46.0840   52.8680 N   0  0  0  0  0  0  0  0  0  0  0  0
    7.5550   46.4220   53.0570 C   0  0  0  0  0  0  0  0  0  0  0  0
    7.9600   47.0370   54.2530 C   0  0  0  0  0  0  0  0  0  0  0  0
    9.2940   47.4000   54.4500 C   0  0  0  0  0  0  0  0  0  0  0  0
   10.2420   47.1430   53.4600 C   0  0  0  0  0  0  0  0  0  0  0  0
    9.8620   46.5170   52.2710 C   0  0  0  0  0  0  0  0  0  0  0  0
   10.8070   46.2600   51.3280 F   0  0  0  0  0  0  0  0  0  0  0  0
    8.5220   46.1550   52.0600 C   0  0  0  0  0  0  0  0  0  0  0  0
    8.1730   45.4620   50.8430 C   0  0  0  0  0  0  0  0  0  0  0  0
    7.8990   44.9020   49.8670 N   0  0  0  0  0  0  0  0  0  0  0  0
    5.4500   45.3880   53.7340 N   0  0  0  0  0  0  0  0  0  0  0  0
    0.9103   45.4222   52.2956 H   0  0  0  0  0  0  0  0  0  0  0  0
    1.0404   44.1323   51.0522 H   0  0  0  0  0  0  0  0  0  0  0  0
   -0.3733   45.2404   51.0522 H   0  0  0  0  0  0  0  0  0  0  0  0
   -0.6277   42.8071   52.0640 H   0  0  0  0  0  0  0  0  0  0  0  0
    0.2073   43.5091   53.4877 H   0  0  0  0  0  0  0  0  0  0  0  0
   -3.6763   43.8173   52.9753 H   0  0  0  0  0  0  0  0  0  0  0  0
   -4.5136   45.2904   51.4798 H   0  0  0  0  0  0  0  0  0  0  0  0
   -3.0118   46.1978   52.0074 H   0  0  0  0  0  0  0  0  0  0  0  0
   -3.4421   46.2556   49.5369 H   0  0  0  0  0  0  0  0  0  0  0  0
   -1.8445   45.5734   50.0294 H   0  0  0  0  0  0  0  0  0  0  0  0
   -4.3242   43.9345   49.3143 H   0  0  0  0  0  0  0  0  0  0  0  0
   -2.9146   44.2437   48.2293 H   0  0  0  0  0  0  0  0  0  0  0  0
   -2.7855   42.0270   49.3569 H   0  0  0  0  0  0  0  0  0  0  0  0
   -1.4198   43.1423   49.8023 H   0  0  0  0  0  0  0  0  0  0  0  0
   -3.7923   42.2579   51.4618 H   0  0  0  0  0  0  0  0  0  0  0  0
   -1.9746   42.1941   51.8006 H   0  0  0  0  0  0  0  0  0  0  0  0
   -0.5762   46.2633   54.7550 H   0  0  0  0  0  0  0  0  0  0  0  0
   -1.6011   46.1322   56.2527 H   0  0  0  0  0  0  0  0  0  0  0  0
    0.7157   45.8323   56.8813 H   0  0  0  0  0  0  0  0  0  0  0  0
   -0.1437   44.2486   57.0103 H   0  0  0  0  0  0  0  0  0  0  0  0
    0.9620   43.4950   54.9750 H   0  0  0  0  0  0  0  0  0  0  0  0
    2.9080   43.6280   53.5220 H   0  0  0  0  0  0  0  0  0  0  0  0
    3.2623   46.0247   51.3360 H   0  0  0  0  0  0  0  0  0  0  0  0
    5.7418   47.0114   50.9377 H   0  0  0  0  0  0  0  0  0  0  0  0
    7.2194   47.2346   55.0420 H   0  0  0  0  0  0  0  0  0  0  0  0
    9.5974   47.8893   55.3873 H   0  0  0  0  0  0  0  0  0  0  0  0
   11.2913   47.4340   53.6160 H   0  0  0  0  0  0  0  0  0  0  0  0
  1  2  1  0
  2  3  1  0
  3  4  1  0
  4  5  1  0
  5  6  1  0
  6  7  1  0
  7  8  1  0
  8  9  1  0
  3 10  1  0
 10 11  2  0
 10 12  2  0
 10 13  1  0
 13 14  1  0
 14 15  1  0
 15 16  1  0
 16 17  2  0
 16 18  1  0
 18 19  1  0
 19 20  1  0
 20 21  2  0
 21 22  1  0
 22 23  1  0
 23 24  2  0
 24 25  1  0
 25 26  2  0
 26 27  1  0
 27 28  1  0
 27 29  2  0
 29 30  1  0
 30 31  3  0
 22 32  1  0
  9  4  1  0
 32 19  2  0
 29 23  1  0
  1 33  1  0
  1 34  1  0
  1 35  1  0
  2 36  1  0
  2 37  1  0
  4 38  1  0
  5 39  1  0
  5 40  1  0
  6 41  1  0
  6 42  1  0
  7 43  1  0
  7 44  1  0
  8 45  1  0
  8 46  1  0
  9 47  1  0
  9 48  1  0
 13 49  1  0
 13 50  1  0
 14 51  1  0
 14 52  1  0
 15 53  1  0
 18 54  1  0
 20 55  1  0
 21 56  1  0
 24 57  1  0
 25 58  1  0
 26 59  1  0
M  END
>  <meeko>  (5) 
{"is_sidechain": [false], "free_energy": -8.517, "intermolecular_energy": -11.576, "internal_energy": -1.216}

$$$$
