ligand_84_conformer_1_docked
     RDKit          3D

 51 53  0  0  0  0  0  0  0  0999 V2000
   -0.1980   42.2750   52.5630 C   0  0  0  0  0  0  0  0  0  0  0  0
    0.1480   43.4730   51.7880 N   0  0  0  0  0  0  0  0  0  0  0  0
   -0.9130   44.2480   51.1340 C   0  0  0  0  0  0  0  0  0  0  0  0
    1.5120   43.9500   51.7180 C   0  0  0  0  0  0  0  0  0  0  0  0
    1.7570   45.0330   51.1150 O   0  0  0  0  0  0  0  0  0  0  0  0
    2.6420   43.2290   52.4260 C   0  0  2  0  0  0  0  0  0  0  0  0
    3.2960   44.1390   53.3710 N   0  0  0  0  0  0  0  0  0  0  0  0
    2.6490   44.5950   54.5680 C   0  0  0  0  0  0  0  0  0  0  0  0
    1.5220   44.1340   54.8990 O   0  0  0  0  0  0  0  0  0  0  0  0
    3.3120   45.6210   55.4400 C   0  0  0  0  0  0  0  0  0  0  0  0
    4.2200   46.4870   54.6200 C   0  0  0  0  0  0  0  0  0  0  0  0
    3.8010   47.6730   54.0210 C   0  0  0  0  0  0  0  0  0  0  0  0
    5.1010   48.3000   53.1630 S   0  0  0  0  0  0  0  0  0  0  0  0
    6.1410   47.0410   53.5820 C   0  0  0  0  0  0  0  0  0  0  0  0
    7.5150   46.9160   53.1490 N   0  0  0  0  0  0  0  0  0  0  0  0
    7.8080   46.1770   51.9080 C   0  0  0  0  0  0  0  0  0  0  0  0
    9.1780   46.5450   51.3300 C   0  0  0  0  0  0  0  0  0  0  0  0
   10.2620   46.3470   52.3840 C   0  0  0  0  0  0  0  0  0  0  0  0
    9.9610   47.1500   53.5620 N   0  0  0  0  0  0  0  0  0  0  0  0
    8.6090   47.3710   53.9780 C   0  0  0  0  0  0  0  0  0  0  0  0
    8.3950   47.9880   55.0560 O   0  0  0  0  0  0  0  0  0  0  0  0
    5.5140   46.1390   54.3710 N   0  0  0  0  0  0  0  0  0  0  0  0
    3.6490   42.6630   51.4420 C   0  0  0  0  0  0  0  0  0  0  0  0
    4.9240   43.2440   51.2900 C   0  0  0  0  0  0  0  0  0  0  0  0
    5.8270   42.7320   50.3520 C   0  0  0  0  0  0  0  0  0  0  0  0
    5.4680   41.6420   49.5550 C   0  0  0  0  0  0  0  0  0  0  0  0
    4.2010   41.0700   49.6850 C   0  0  0  0  0  0  0  0  0  0  0  0
    3.2930   41.5770   50.6210 C   0  0  0  0  0  0  0  0  0  0  0  0
   -0.1325   42.5018   53.6374 H   0  0  0  0  0  0  0  0  0  0  0  0
   -1.2232   41.9620   52.3161 H   0  0  0  0  0  0  0  0  0  0  0  0
    0.5025   41.4636   52.3161 H   0  0  0  0  0  0  0  0  0  0  0  0
   -1.5512   44.7142   51.8990 H   0  0  0  0  0  0  0  0  0  0  0  0
   -0.4617   45.0306   50.5064 H   0  0  0  0  0  0  0  0  0  0  0  0
   -1.5212   43.5801   50.5064 H   0  0  0  0  0  0  0  0  0  0  0  0
    2.2142   42.3796   52.9788 H   0  0  0  0  0  0  0  0  0  0  0  0
    4.2770   44.4500   53.1860 H   0  0  0  0  0  0  0  0  0  0  0  0
    2.5420   46.2477   55.9138 H   0  0  0  0  0  0  0  0  0  0  0  0
    3.9049   45.1079   56.2115 H   0  0  0  0  0  0  0  0  0  0  0  0
    2.7982   48.1188   54.0966 H   0  0  0  0  0  0  0  0  0  0  0  0
    7.7922   45.0987   52.1248 H   0  0  0  0  0  0  0  0  0  0  0  0
    7.0428   46.4450   51.1646 H   0  0  0  0  0  0  0  0  0  0  0  0
    9.3917   45.9023   50.4632 H   0  0  0  0  0  0  0  0  0  0  0  0
    9.1661   47.6003   51.0198 H   0  0  0  0  0  0  0  0  0  0  0  0
   10.3052   45.2851   52.6678 H   0  0  0  0  0  0  0  0  0  0  0  0
   11.2315   46.6610   51.9698 H   0  0  0  0  0  0  0  0  0  0  0  0
   10.7470   47.5620   54.1160 H   0  0  0  0  0  0  0  0  0  0  0  0
    5.2107   44.1046   51.9122 H   0  0  0  0  0  0  0  0  0  0  0  0
    6.8217   43.1885   50.2417 H   0  0  0  0  0  0  0  0  0  0  0  0
    6.1833   41.2346   48.8254 H   0  0  0  0  0  0  0  0  0  0  0  0
    3.9159   40.2184   49.0498 H   0  0  0  0  0  0  0  0  0  0  0  0
    2.2951   41.1240   50.7156 H   0  0  0  0  0  0  0  0  0  0  0  0
  1  2  1  0
  2  3  1  0
  2  4  1  0
  4  5  2  0
  4  6  1  0
  6  7  1  0
  7  8  1  0
  8  9  2  0
  8 10  1  0
 10 11  1  0
 11 12  2  0
 12 13  1  0
 13 14  1  0
 14 15  1  0
 15 16  1  0
 16 17  1  0
 17 18  1  0
 18 19  1  0
 19 20  1  0
 20 21  2  0
 14 22  2  0
  6 23  1  0
 23 24  2  0
 24 25  1  0
 25 26  2  0
 26 27  1  0
 27 28  2  0
 22 11  1  0
 28 23  1  0
 20 15  1  0
  1 29  1  0
  1 30  1  0
  1 31  1  0
  3 32  1  0
  3 33  1  0
  3 34  1  0
  6 35  1  1
  7 36  1  0
 10 37  1  0
 10 38  1  0
 12 39  1  0
 16 40  1  0
 16 41  1  0
 17 42  1  0
 17 43  1  0
 18 44  1  0
 18 45  1  0
 19 46  1  0
 24 47  1  0
 25 48  1  0
 26 49  1  0
 27 50  1  0
 28 51  1  0
M  END
>  <meeko>  (1) 
{"is_sidechain": [false], "free_energy": -7.95, "intermolecular_energy": -10.739, "internal_energy": -1.461}

$$$$
ligand_84_conformer_1_docked
     RDKit          3D

 51 53  0  0  0  0  0  0  0  0999 V2000
    3.5010   47.1040   53.1540 C   0  0  0  0  0  0  0  0  0  0  0  0
    4.0410   46.3380   54.2840 N   0  0  0  0  0  0  0  0  0  0  0  0
    3.1710   46.0010   55.4170 C   0  0  0  0  0  0  0  0  0  0  0  0
    5.3990   45.8400   54.2690 C   0  0  0  0  0  0  0  0  0  0  0  0
    5.7990   45.1090   55.2190 O   0  0  0  0  0  0  0  0  0  0  0  0
    6.3270   46.0990   53.0980 C   0  0  2  0  0  0  0  0  0  0  0  0
    6.4310   44.8920   52.2720 N   0  0  0  0  0  0  0  0  0  0  0  0
    6.5150   44.9480   50.8410 C   0  0  0  0  0  0  0  0  0  0  0  0
    6.6090   46.0600   50.2510 O   0  0  0  0  0  0  0  0  0  0  0  0
    6.4960   43.6840   50.0330 C   0  0  0  0  0  0  0  0  0  0  0  0
    5.2620   42.8900   50.3440 C   0  0  0  0  0  0  0  0  0  0  0  0
    5.0570   41.5940   49.8780 C   0  0  0  0  0  0  0  0  0  0  0  0
    3.5440   41.0940   50.4070 S   0  0  0  0  0  0  0  0  0  0  0  0
    3.2090   42.5430   51.2020 C   0  0  0  0  0  0  0  0  0  0  0  0
    1.9860   42.8390   51.9130 N   0  0  0  0  0  0  0  0  0  0  0  0
    1.9920   42.8080   53.3870 C   0  0  0  0  0  0  0  0  0  0  0  0
    0.8250   43.6010   53.9830 C   0  0  0  0  0  0  0  0  0  0  0  0
   -0.4960   43.1040   53.4050 C   0  0  0  0  0  0  0  0  0  0  0  0
   -0.4770   43.2200   51.9530 N   0  0  0  0  0  0  0  0  0  0  0  0
    0.7330   43.0190   51.2130 C   0  0  0  0  0  0  0  0  0  0  0  0
    0.6890   43.0300   49.9540 O   0  0  0  0  0  0  0  0  0  0  0  0
    4.2360   43.4130   51.0710 N   0  0  0  0  0  0  0  0  0  0  0  0
    7.6990   46.5530   53.5600 C   0  0  0  0  0  0  0  0  0  0  0  0
    7.8420   47.5120   54.5830 C   0  0  0  0  0  0  0  0  0  0  0  0
    9.1140   47.9460   54.9710 C   0  0  0  0  0  0  0  0  0  0  0  0
   10.2530   47.4350   54.3440 C   0  0  0  0  0  0  0  0  0  0  0  0
   10.1210   46.4980   53.3170 C   0  0  0  0  0  0  0  0  0  0  0  0
    8.8520   46.0580   52.9240 C   0  0  0  0  0  0  0  0  0  0  0  0
    2.9062   47.9478   53.5338 H   0  0  0  0  0  0  0  0  0  0  0  0
    4.3302   47.4866   52.5407 H   0  0  0  0  0  0  0  0  0  0  0  0
    2.8620   46.4516   52.5407 H   0  0  0  0  0  0  0  0  0  0  0  0
    3.7002   46.2060   56.3593 H   0  0  0  0  0  0  0  0  0  0  0  0
    2.2560   46.6097   55.3704 H   0  0  0  0  0  0  0  0  0  0  0  0
    2.9048   44.9347   55.3704 H   0  0  0  0  0  0  0  0  0  0  0  0
    5.9006   46.9145   52.4954 H   0  0  0  0  0  0  0  0  0  0  0  0
    6.4730   43.9570   52.7370 H   0  0  0  0  0  0  0  0  0  0  0  0
    6.5055   43.9367   48.9625 H   0  0  0  0  0  0  0  0  0  0  0  0
    7.3826   43.0834   50.2845 H   0  0  0  0  0  0  0  0  0  0  0  0
    5.7601   41.0037   49.2720 H   0  0  0  0  0  0  0  0  0  0  0  0
    1.9177   41.7624   53.7204 H   0  0  0  0  0  0  0  0  0  0  0  0
    2.9283   43.2706   53.7325 H   0  0  0  0  0  0  0  0  0  0  0  0
    0.8164   43.4701   55.0752 H   0  0  0  0  0  0  0  0  0  0  0  0
    0.9489   44.6654   53.7345 H   0  0  0  0  0  0  0  0  0  0  0  0
   -0.6431   42.0504   53.6848 H   0  0  0  0  0  0  0  0  0  0  0  0
   -1.3190   43.7137   53.8062 H   0  0  0  0  0  0  0  0  0  0  0  0
   -1.3630   43.4420   51.4440 H   0  0  0  0  0  0  0  0  0  0  0  0
    6.9492   47.9211   55.0786 H   0  0  0  0  0  0  0  0  0  0  0  0
    9.2177   48.6922   55.7725 H   0  0  0  0  0  0  0  0  0  0  0  0
   11.2523   47.7702   54.6588 H   0  0  0  0  0  0  0  0  0  0  0  0
   11.0174   46.1045   52.8153 H   0  0  0  0  0  0  0  0  0  0  0  0
    8.7556   45.3209   52.1132 H   0  0  0  0  0  0  0  0  0  0  0  0
  1  2  1  0
  2  3  1  0
  2  4  1  0
  4  5  2  0
  4  6  1  0
  6  7  1  0
  7  8  1  0
  8  9  2  0
  8 10  1  0
 10 11  1  0
 11 12  2  0
 12 13  1  0
 13 14  1  0
 14 15  1  0
 15 16  1  0
 16 17  1  0
 17 18  1  0
 18 19  1  0
 19 20  1  0
 20 21  2  0
 14 22  2  0
  6 23  1  0
 23 24  2  0
 24 25  1  0
 25 26  2  0
 26 27  1  0
 27 28  2  0
 22 11  1  0
 28 23  1  0
 20 15  1  0
  1 29  1  0
  1 30  1  0
  1 31  1  0
  3 32  1  0
  3 33  1  0
  3 34  1  0
  6 35  1  6
  7 36  1  0
 10 37  1  0
 10 38  1  0
 12 39  1  0
 16 40  1  0
 16 41  1  0
 17 42  1  0
 17 43  1  0
 18 44  1  0
 18 45  1  0
 19 46  1  0
 24 47  1  0
 25 48  1  0
 26 49  1  0
 27 50  1  0
 28 51  1  0
M  END
>  <meeko>  (2) 
{"is_sidechain": [false], "free_energy": -7.743, "intermolecular_energy": -10.754, "internal_energy": -1.167}

$$$$
ligand_84_conformer_1_docked
     RDKit          3D

 51 53  0  0  0  0  0  0  0  0999 V2000
    8.4100   48.1870   51.4580 C   0  0  0  0  0  0  0  0  0  0  0  0
    8.3970   47.3200   52.6430 N   0  0  0  0  0  0  0  0  0  0  0  0
    9.4460   47.4620   53.6600 C   0  0  0  0  0  0  0  0  0  0  0  0
    7.3230   46.3780   52.8690 C   0  0  0  0  0  0  0  0  0  0  0  0
    7.3000   45.7140   53.9430 O   0  0  0  0  0  0  0  0  0  0  0  0
    6.1760   46.2320   51.8880 C   0  0  2  0  0  0  0  0  0  0  0  0
    4.9010   46.2300   52.6110 N   0  0  0  0  0  0  0  0  0  0  0  0
    3.6530   46.5170   51.9660 C   0  0  0  0  0  0  0  0  0  0  0  0
    3.6040   46.6790   50.7150 O   0  0  0  0  0  0  0  0  0  0  0  0
    2.3920   46.6240   52.7730 C   0  0  0  0  0  0  0  0  0  0  0  0
    1.6750   45.3080   52.7880 C   0  0  0  0  0  0  0  0  0  0  0  0
    2.2450   44.1390   53.2860 C   0  0  0  0  0  0  0  0  0  0  0  0
    1.1360   42.8970   53.0700 S   0  0  0  0  0  0  0  0  0  0  0  0
   -0.0200   43.8900   52.3500 C   0  0  0  0  0  0  0  0  0  0  0  0
   -1.3080   43.4510   51.8630 N   0  0  0  0  0  0  0  0  0  0  0  0
   -1.4940   43.2530   50.4140 C   0  0  0  0  0  0  0  0  0  0  0  0
   -2.6870   42.3430   50.1070 C   0  0  0  0  0  0  0  0  0  0  0  0
   -3.9460   42.8830   50.7770 C   0  0  0  0  0  0  0  0  0  0  0  0
   -3.7330   42.9950   52.2150 N   0  0  0  0  0  0  0  0  0  0  0  0
   -2.4490   43.3450   52.7450 C   0  0  0  0  0  0  0  0  0  0  0  0
   -2.3300   43.5280   53.9860 O   0  0  0  0  0  0  0  0  0  0  0  0
    0.4240   45.1650   52.2660 N   0  0  0  0  0  0  0  0  0  0  0  0
    6.3170   44.9780   51.0440 C   0  0  0  0  0  0  0  0  0  0  0  0
    5.4570   43.8770   51.2280 C   0  0  0  0  0  0  0  0  0  0  0  0
    5.6240   42.7150   50.4670 C   0  0  0  0  0  0  0  0  0  0  0  0
    6.6500   42.6360   49.5210 C   0  0  0  0  0  0  0  0  0  0  0  0
    7.5180   43.7150   49.3440 C   0  0  0  0  0  0  0  0  0  0  0  0
    7.3570   44.8810   50.1010 C   0  0  0  0  0  0  0  0  0  0  0  0
    8.4258   49.2404   51.7745 H   0  0  0  0  0  0  0  0  0  0  0  0
    9.3050   47.9716   50.8559 H   0  0  0  0  0  0  0  0  0  0  0  0
    7.5089   47.9985   50.8559 H   0  0  0  0  0  0  0  0  0  0  0  0
    8.9960   47.4011   54.6619 H   0  0  0  0  0  0  0  0  0  0  0  0
   10.1845   46.6556   53.5401 H   0  0  0  0  0  0  0  0  0  0  0  0
    9.9435   48.4357   53.5401 H   0  0  0  0  0  0  0  0  0  0  0  0
    6.2002   47.0911   51.2014 H   0  0  0  0  0  0  0  0  0  0  0  0
    4.8920   45.9850   53.6280 H   0  0  0  0  0  0  0  0  0  0  0  0
    2.6437   46.9126   53.8042 H   0  0  0  0  0  0  0  0  0  0  0  0
    1.7387   47.3840   52.3197 H   0  0  0  0  0  0  0  0  0  0  0  0
    3.2428   44.0460   53.7395 H   0  0  0  0  0  0  0  0  0  0  0  0
   -1.6629   44.2315   49.9408 H   0  0  0  0  0  0  0  0  0  0  0  0
   -0.5882   42.7703   50.0183 H   0  0  0  0  0  0  0  0  0  0  0  0
   -2.8430   42.3027   49.0189 H   0  0  0  0  0  0  0  0  0  0  0  0
   -2.4786   41.3345   50.4935 H   0  0  0  0  0  0  0  0  0  0  0  0
   -4.1818   43.8752   50.3647 H   0  0  0  0  0  0  0  0  0  0  0  0
   -4.7818   42.1936   50.5870 H   0  0  0  0  0  0  0  0  0  0  0  0
   -4.5330   42.8280   52.8660 H   0  0  0  0  0  0  0  0  0  0  0  0
    4.6503   43.9315   51.9738 H   0  0  0  0  0  0  0  0  0  0  0  0
    4.9461   41.8612   50.6135 H   0  0  0  0  0  0  0  0  0  0  0  0
    6.7733   41.7250   48.9169 H   0  0  0  0  0  0  0  0  0  0  0  0
    8.3316   43.6484   48.6067 H   0  0  0  0  0  0  0  0  0  0  0  0
    8.0468   45.7258   49.9582 H   0  0  0  0  0  0  0  0  0  0  0  0
  1  2  1  0
  2  3  1  0
  2  4  1  0
  4  5  2  0
  4  6  1  0
  6  7  1  0
  7  8  1  0
  8  9  2  0
  8 10  1  0
 10 11  1  0
 11 12  2  0
 12 13  1  0
 13 14  1  0
 14 15  1  0
 15 16  1  0
 16 17  1  0
 17 18  1  0
 18 19  1  0
 19 20  1  0
 20 21  2  0
 14 22  2  0
  6 23  1  0
 23 24  2  0
 24 25  1  0
 25 26  2  0
 26 27  1  0
 27 28  2  0
 22 11  1  0
 28 23  1  0
 20 15  1  0
  1 29  1  0
  1 30  1  0
  1 31  1  0
  3 32  1  0
  3 33  1  0
  3 34  1  0
  6 35  1  6
  7 36  1  0
 10 37  1  0
 10 38  1  0
 12 39  1  0
 16 40  1  0
 16 41  1  0
 17 42  1  0
 17 43  1  0
 18 44  1  0
 18 45  1  0
 19 46  1  0
 24 47  1  0
 25 48  1  0
 26 49  1  0
 27 50  1  0
 28 51  1  0
M  END
>  <meeko>  (3) 
{"is_sidechain": [false], "free_energy": -7.561, "intermolecular_energy": -10.987, "internal_energy": -0.688}

$$$$
ligand_84_conformer_1_docked
     RDKit          3D

 51 53  0  0  0  0  0  0  0  0999 V2000
    6.0400   47.2000   52.3720 C   0  0  0  0  0  0  0  0  0  0  0  0
    6.4580   46.2760   53.4340 N   0  0  0  0  0  0  0  0  0  0  0  0
    7.6260   46.5990   54.2620 C   0  0  0  0  0  0  0  0  0  0  0  0
    5.6930   45.0850   53.7330 C   0  0  0  0  0  0  0  0  0  0  0  0
    6.0340   44.3620   54.7110 O   0  0  0  0  0  0  0  0  0  0  0  0
    4.4400   44.7310   52.9560 C   0  0  2  0  0  0  0  0  0  0  0  0
    3.3780   44.3280   53.8830 N   0  0  0  0  0  0  0  0  0  0  0  0
    2.6290   45.2810   54.6510 C   0  0  0  0  0  0  0  0  0  0  0  0
    2.7930   46.5190   54.4670 O   0  0  0  0  0  0  0  0  0  0  0  0
    1.6380   44.8120   55.6770 C   0  0  0  0  0  0  0  0  0  0  0  0
    0.2730   44.7050   55.0660 C   0  0  0  0  0  0  0  0  0  0  0  0
   -0.9010   44.8420   55.8040 C   0  0  0  0  0  0  0  0  0  0  0  0
   -2.1920   44.6040   54.7580 S   0  0  0  0  0  0  0  0  0  0  0  0
   -1.2120   44.3340   53.4130 C   0  0  0  0  0  0  0  0  0  0  0  0
   -1.6880   44.0300   52.0830 N   0  0  0  0  0  0  0  0  0  0  0  0
   -1.6480   42.6340   51.6120 C   0  0  0  0  0  0  0  0  0  0  0  0
   -2.6080   42.3950   50.4420 C   0  0  0  0  0  0  0  0  0  0  0  0
   -2.3230   43.3860   49.3190 C   0  0  0  0  0  0  0  0  0  0  0  0
   -2.4430   44.7500   49.8200 N   0  0  0  0  0  0  0  0  0  0  0  0
   -2.0620   45.0790   51.1600 C   0  0  0  0  0  0  0  0  0  0  0  0
   -2.0870   46.2850   51.5240 O   0  0  0  0  0  0  0  0  0  0  0  0
    0.0970   44.4200   53.7460 N   0  0  0  0  0  0  0  0  0  0  0  0
    4.7030   43.6400   51.9350 C   0  0  0  0  0  0  0  0  0  0  0  0
    5.7280   43.7710   50.9770 C   0  0  0  0  0  0  0  0  0  0  0  0
    5.9340   42.7710   50.0210 C   0  0  0  0  0  0  0  0  0  0  0  0
    5.1190   41.6360   50.0050 C   0  0  0  0  0  0  0  0  0  0  0  0
    4.0900   41.5050   50.9380 C   0  0  0  0  0  0  0  0  0  0  0  0
    3.8780   42.5000   51.8990 C   0  0  0  0  0  0  0  0  0  0  0  0
    5.6265   48.1141   52.8231 H   0  0  0  0  0  0  0  0  0  0  0  0
    6.9085   47.4592   51.7487 H   0  0  0  0  0  0  0  0  0  0  0  0
    5.2719   46.7189   51.7487 H   0  0  0  0  0  0  0  0  0  0  0  0
    7.3539   46.5237   55.3252 H   0  0  0  0  0  0  0  0  0  0  0  0
    8.4391   45.8920   54.0407 H   0  0  0  0  0  0  0  0  0  0  0  0
    7.9604   47.6233   54.0407 H   0  0  0  0  0  0  0  0  0  0  0  0
    4.1165   45.6244   52.4018 H   0  0  0  0  0  0  0  0  0  0  0  0
    3.1370   43.3150   53.9740 H   0  0  0  0  0  0  0  0  0  0  0  0
    1.9454   43.8258   56.0551 H   0  0  0  0  0  0  0  0  0  0  0  0
    1.6059   45.5372   56.5034 H   0  0  0  0  0  0  0  0  0  0  0  0
   -0.9694   45.0659   56.8788 H   0  0  0  0  0  0  0  0  0  0  0  0
   -0.6244   42.3987   51.2852 H   0  0  0  0  0  0  0  0  0  0  0  0
   -1.9590   41.9856   52.4444 H   0  0  0  0  0  0  0  0  0  0  0  0
   -2.4744   41.3702   50.0654 H   0  0  0  0  0  0  0  0  0  0  0  0
   -3.6419   42.5340   50.7908 H   0  0  0  0  0  0  0  0  0  0  0  0
   -1.3030   43.2248   48.9402 H   0  0  0  0  0  0  0  0  0  0  0  0
   -3.0492   43.2327   48.5071 H   0  0  0  0  0  0  0  0  0  0  0  0
   -2.8020   45.4990   49.1850 H   0  0  0  0  0  0  0  0  0  0  0  0
    6.3696   44.6645   50.9810 H   0  0  0  0  0  0  0  0  0  0  0  0
    6.7397   42.8783   49.2798 H   0  0  0  0  0  0  0  0  0  0  0  0
    5.2885   40.8468   49.2577 H   0  0  0  0  0  0  0  0  0  0  0  0
    3.4426   40.6159   50.9182 H   0  0  0  0  0  0  0  0  0  0  0  0
    3.0629   42.3907   52.6296 H   0  0  0  0  0  0  0  0  0  0  0  0
  1  2  1  0
  2  3  1  0
  2  4  1  0
  4  5  2  0
  4  6  1  0
  6  7  1  0
  7  8  1  0
  8  9  2  0
  8 10  1  0
 10 11  1  0
 11 12  2  0
 12 13  1  0
 13 14  1  0
 14 15  1  0
 15 16  1  0
 16 17  1  0
 17 18  1  0
 18 19  1  0
 19 20  1  0
 20 21  2  0
 14 22  2  0
  6 23  1  0
 23 24  2  0
 24 25  1  0
 25 26  2  0
 26 27  1  0
 27 28  2  0
 22 11  1  0
 28 23  1  0
 20 15  1  0
  1 29  1  0
  1 30  1  0
  1 31  1  0
  3 32  1  0
  3 33  1  0
  3 34  1  0
  6 35  1  6
  7 36  1  0
 10 37  1  0
 10 38  1  0
 12 39  1  0
 16 40  1  0
 16 41  1  0
 17 42  1  0
 17 43  1  0
 18 44  1  0
 18 45  1  0
 19 46  1  0
 24 47  1  0
 25 48  1  0
 26 49  1  0
 27 50  1  0
 28 51  1  0
M  END
>  <meeko>  (4) 
{"is_sidechain": [false], "free_energy": -7.521, "intermolecular_energy": -10.228, "internal_energy": -1.392}

$$$$
ligand_84_conformer_1_docked
     RDKit          3D

 51 53  0  0  0  0  0  0  0  0999 V2000
    3.2960   47.4740   52.5150 C   0  0  0  0  0  0  0  0  0  0  0  0
    4.3670   46.8570   53.3090 N   0  0  0  0  0  0  0  0  0  0  0  0
    4.7700   47.4650   54.5830 C   0  0  0  0  0  0  0  0  0  0  0  0
    4.9820   45.6140   52.8980 C   0  0  0  0  0  0  0  0  0  0  0  0
    5.8360   45.0690   53.6530 O   0  0  0  0  0  0  0  0  0  0  0  0
    4.5630   44.9040   51.6260 C   0  0  2  0  0  0  0  0  0  0  0  0
    3.6750   43.7840   51.9530 N   0  0  0  0  0  0  0  0  0  0  0  0
    2.2890   43.7700   51.5790 C   0  0  0  0  0  0  0  0  0  0  0  0
    1.8150   44.6890   50.8540 O   0  0  0  0  0  0  0  0  0  0  0  0
    1.3930   42.6600   52.0430 C   0  0  0  0  0  0  0  0  0  0  0  0
    0.2710   43.2120   52.8700 C   0  0  0  0  0  0  0  0  0  0  0  0
   -1.0710   43.0410   52.5390 C   0  0  0  0  0  0  0  0  0  0  0  0
   -1.9880   43.8510   53.6880 S   0  0  0  0  0  0  0  0  0  0  0  0
   -0.6470   44.3890   54.5560 C   0  0  0  0  0  0  0  0  0  0  0  0
   -0.7000   45.2130   55.7430 N   0  0  0  0  0  0  0  0  0  0  0  0
   -1.9760   45.8490   56.1150 C   0  0  0  0  0  0  0  0  0  0  0  0
   -2.0090   46.2510   57.5920 C   0  0  0  0  0  0  0  0  0  0  0  0
   -0.8110   47.1350   57.9220 C   0  0  0  0  0  0  0  0  0  0  0  0
    0.4260   46.4350   57.6010 N   0  0  0  0  0  0  0  0  0  0  0  0
    0.4980   45.5420   56.4840 C   0  0  0  0  0  0  0  0  0  0  0  0
    1.6100   45.0320   56.1800 O   0  0  0  0  0  0  0  0  0  0  0  0
    0.5010   43.9620   53.9840 N   0  0  0  0  0  0  0  0  0  0  0  0
    5.7630   44.4230   50.8320 C   0  0  0  0  0  0  0  0  0  0  0  0
    6.8520   45.2770   50.5680 C   0  0  0  0  0  0  0  0  0  0  0  0
    7.9330   44.8280   49.8030 C   0  0  0  0  0  0  0  0  0  0  0  0
    7.9400   43.5290   49.2900 C   0  0  0  0  0  0  0  0  0  0  0  0
    6.8580   42.6800   49.5310 C   0  0  0  0  0  0  0  0  0  0  0  0
    5.7720   43.1220   50.2950 C   0  0  0  0  0  0  0  0  0  0  0  0
    2.5430   47.9078   53.1894 H   0  0  0  0  0  0  0  0  0  0  0  0
    3.7199   48.2663   51.8805 H   0  0  0  0  0  0  0  0  0  0  0  0
    2.8232   46.7099   51.8805 H   0  0  0  0  0  0  0  0  0  0  0  0
    4.3734   46.8667   55.4165 H   0  0  0  0  0  0  0  0  0  0  0  0
    5.8679   47.4957   54.6436 H   0  0  0  0  0  0  0  0  0  0  0  0
    4.3707   48.4882   54.6436 H   0  0  0  0  0  0  0  0  0  0  0  0
    4.0212   45.6227   50.9937 H   0  0  0  0  0  0  0  0  0  0  0  0
    4.0640   42.9520   52.4520 H   0  0  0  0  0  0  0  0  0  0  0  0
    0.9772   42.1388   51.1681 H   0  0  0  0  0  0  0  0  0  0  0  0
    1.9785   41.9581   52.6550 H   0  0  0  0  0  0  0  0  0  0  0  0
   -1.4601   42.4764   51.6789 H   0  0  0  0  0  0  0  0  0  0  0  0
   -2.1166   46.7494   55.4989 H   0  0  0  0  0  0  0  0  0  0  0  0
   -2.7812   45.1193   55.9441 H   0  0  0  0  0  0  0  0  0  0  0  0
   -2.9371   46.8045   57.7976 H   0  0  0  0  0  0  0  0  0  0  0  0
   -1.9686   45.3438   58.2128 H   0  0  0  0  0  0  0  0  0  0  0  0
   -0.8687   48.0621   57.3329 H   0  0  0  0  0  0  0  0  0  0  0  0
   -0.8230   47.3748   58.9955 H   0  0  0  0  0  0  0  0  0  0  0  0
    1.2740   46.5960   58.1900 H   0  0  0  0  0  0  0  0  0  0  0  0
    6.8519   46.3025   50.9658 H   0  0  0  0  0  0  0  0  0  0  0  0
    8.7808   45.5002   49.6046 H   0  0  0  0  0  0  0  0  0  0  0  0
    8.7964   43.1754   48.6971 H   0  0  0  0  0  0  0  0  0  0  0  0
    6.8592   41.6601   49.1189 H   0  0  0  0  0  0  0  0  0  0  0  0
    4.9210   42.4492   50.4768 H   0  0  0  0  0  0  0  0  0  0  0  0
  1  2  1  0
  2  3  1  0
  2  4  1  0
  4  5  2  0
  4  6  1  0
  6  7  1  0
  7  8  1  0
  8  9  2  0
  8 10  1  0
 10 11  1  0
 11 12  2  0
 12 13  1  0
 13 14  1  0
 14 15  1  0
 15 16  1  0
 16 17  1  0
 17 18  1  0
 18 19  1  0
 19 20  1  0
 20 21  2  0
 14 22  2  0
  6 23  1  0
 23 24  2  0
 24 25  1  0
 25 26  2  0
 26 27  1  0
 27 28  2  0
 22 11  1  0
 28 23  1  0
 20 15  1  0
  1 29  1  0
  1 30  1  0
  1 31  1  0
  3 32  1  0
  3 33  1  0
  3 34  1  0
  6 35  1  6
  7 36  1  0
 10 37  1  0
 10 38  1  0
 12 39  1  0
 16 40  1  0
 16 41  1  0
 17 42  1  0
 17 43  1  0
 18 44  1  0
 18 45  1  0
 19 46  1  0
 24 47  1  0
 25 48  1  0
 26 49  1  0
 27 50  1  0
 28 51  1  0
M  END
>  <meeko>  (5) 
{"is_sidechain": [false], "free_energy": -7.466, "intermolecular_energy": -10.97, "internal_energy": -0.576}

$$$$
