MODEL 1
REMARK VINA RESULT:    -8.614      0.000      0.000
REMARK INTER + INTRA:         -13.164
REMARK INTER:                 -12.139
REMARK INTRA:                  -1.025
REMARK UNBOUND:                -1.025
REMARK SMILES CN(C)CCc1ccc(CNC(=O)Cc2ccc3sccc3c2)cc1
REMARK SMILES IDX 6 1 7 2 8 3 9 4 24 5 25 6 5 7 4 8 2 9 1 10 3 11 10 12 11 13
REMARK SMILES IDX 12 14 13 15 14 17 15 18 16 19 23 20 17 21 22 22 18 23 21 24
REMARK SMILES IDX 19 25 20 26
REMARK H PARENT 11 16
ROOT
ATOM      1  C   UNL     1       8.876  46.534  51.883  1.00  0.00    -0.047 A 
ATOM      2  C   UNL     1       9.886  45.742  51.315  1.00  0.00     0.004 A 
ATOM      3  C   UNL     1       9.570  44.783  50.350  1.00  0.00     0.006 A 
ATOM      4  C   UNL     1       8.239  44.596  49.942  1.00  0.00    -0.029 A 
ATOM      5  C   UNL     1       7.230  45.395  50.504  1.00  0.00     0.006 A 
ATOM      6  C   UNL     1       7.545  46.351  51.474  1.00  0.00     0.004 A 
ENDROOT
BRANCH   1   7
ATOM      7  C   UNL     1       9.210  47.524  52.968  1.00  0.00     0.051 C 
BRANCH   7   8
ATOM      8  C   UNL     1      10.162  46.915  54.003  1.00  0.00     0.088 C 
BRANCH   8   9
ATOM      9  N   UNL     1       9.815  47.354  55.374  1.00  0.00    -0.309 NA
ATOM     10  C   UNL     1      11.036  47.521  56.178  1.00  0.00     0.104 C 
ATOM     11  C   UNL     1       9.059  48.617  55.354  1.00  0.00     0.104 C 
ENDBRANCH   8   9
ENDBRANCH   7   8
ENDBRANCH   1   7
BRANCH   4  12
ATOM     12  C   UNL     1       7.894  43.543  48.922  1.00  0.00     0.151 C 
BRANCH  12  13
ATOM     13  N   UNL     1       6.532  43.050  49.124  1.00  0.00    -0.352 N 
ATOM     14  C   UNL     1       6.251  41.787  49.740  1.00  0.00     0.224 C 
ATOM     15  O   UNL     1       7.195  41.054  50.149  1.00  0.00    -0.275 OA
ATOM     16  H   UNL     1       5.738  43.638  48.785  1.00  0.00     0.163 HD
BRANCH  14  17
ATOM     17  C   UNL     1       4.838  41.314  49.900  1.00  0.00     0.135 C 
BRANCH  17  18
ATOM     18  C   UNL     1       4.091  42.215  50.846  1.00  0.00    -0.038 A 
ATOM     19  C   UNL     1       2.678  42.252  50.824  1.00  0.00     0.006 A 
ATOM     20  C   UNL     1       4.796  42.992  51.790  1.00  0.00     0.013 A 
ATOM     21  C   UNL     1       1.970  43.069  51.720  1.00  0.00     0.020 A 
ATOM     22  C   UNL     1       4.077  43.802  52.674  1.00  0.00    -0.007 A 
ATOM     23  C   UNL     1       2.695  43.831  52.629  1.00  0.00     0.034 A 
ATOM     24  C   UNL     1       4.620  44.634  53.658  1.00  0.00     0.020 A 
ATOM     25  S   UNL     1       2.121  44.885  53.801  1.00  0.00    -0.144 S 
ATOM     26  C   UNL     1       3.647  45.317  54.384  1.00  0.00     0.066 A 
ENDBRANCH  17  18
ENDBRANCH  14  17
ENDBRANCH  12  13
ENDBRANCH   4  12
TORSDOF 7
ENDMDL
MODEL 2
REMARK VINA RESULT:    -7.937      3.085      7.374
REMARK INTER + INTRA:         -12.210
REMARK INTER:                 -11.361
REMARK INTRA:                  -0.849
REMARK UNBOUND:                -1.025
REMARK SMILES CN(C)CCc1ccc(CNC(=O)Cc2ccc3sccc3c2)cc1
REMARK SMILES IDX 6 1 7 2 8 3 9 4 24 5 25 6 5 7 4 8 2 9 1 10 3 11 10 12 11 13
REMARK SMILES IDX 12 14 13 15 14 17 15 18 16 19 23 20 17 21 22 22 18 23 21 24
REMARK SMILES IDX 19 25 20 26
REMARK H PARENT 11 16
ROOT
ATOM      1  C   UNL     1       1.495  45.266  54.211  1.00  0.00    -0.047 A 
ATOM      2  C   UNL     1       2.381  45.271  55.300  1.00  0.00     0.004 A 
ATOM      3  C   UNL     1       3.564  46.013  55.242  1.00  0.00     0.006 A 
ATOM      4  C   UNL     1       3.882  46.755  54.093  1.00  0.00    -0.029 A 
ATOM      5  C   UNL     1       2.991  46.756  53.007  1.00  0.00     0.006 A 
ATOM      6  C   UNL     1       1.811  46.009  53.062  1.00  0.00     0.004 A 
ENDROOT
BRANCH   1   7
ATOM      7  C   UNL     1       0.251  44.416  54.251  1.00  0.00     0.051 C 
BRANCH   7   8
ATOM      8  C   UNL     1       0.529  43.000  53.734  1.00  0.00     0.088 C 
BRANCH   8   9
ATOM      9  N   UNL     1      -0.303  42.692  52.548  1.00  0.00    -0.309 NA
ATOM     10  C   UNL     1      -1.592  43.396  52.634  1.00  0.00     0.104 C 
ATOM     11  C   UNL     1       0.384  43.069  51.302  1.00  0.00     0.104 C 
ENDBRANCH   8   9
ENDBRANCH   7   8
ENDBRANCH   1   7
BRANCH   4  12
ATOM     12  C   UNL     1       5.171  47.531  54.018  1.00  0.00     0.151 C 
BRANCH  12  13
ATOM     13  N   UNL     1       5.848  47.294  52.744  1.00  0.00    -0.352 N 
ATOM     14  C   UNL     1       7.147  46.693  52.661  1.00  0.00     0.224 C 
ATOM     15  O   UNL     1       7.750  46.331  53.710  1.00  0.00    -0.275 OA
ATOM     16  H   UNL     1       5.370  47.595  51.866  1.00  0.00     0.163 HD
BRANCH  14  17
ATOM     17  C   UNL     1       7.812  46.495  51.332  1.00  0.00     0.135 C 
BRANCH  17  18
ATOM     18  C   UNL     1       7.333  45.218  50.696  1.00  0.00    -0.038 A 
ATOM     19  C   UNL     1       8.100  44.600  49.682  1.00  0.00     0.006 A 
ATOM     20  C   UNL     1       6.141  44.609  51.140  1.00  0.00     0.013 A 
ATOM     21  C   UNL     1       7.677  43.394  49.100  1.00  0.00     0.020 A 
ATOM     22  C   UNL     1       5.731  43.410  50.550  1.00  0.00    -0.007 A 
ATOM     23  C   UNL     1       6.492  42.826  49.552  1.00  0.00     0.034 A 
ATOM     24  C   UNL     1       4.579  42.685  50.868  1.00  0.00     0.020 A 
ATOM     25  S   UNL     1       5.753  41.408  49.045  1.00  0.00    -0.144 S 
ATOM     26  C   UNL     1       4.442  41.526  50.106  1.00  0.00     0.066 A 
ENDBRANCH  17  18
ENDBRANCH  14  17
ENDBRANCH  12  13
ENDBRANCH   4  12
TORSDOF 7
ENDMDL
MODEL 3
REMARK VINA RESULT:    -7.690      4.098      7.683
REMARK INTER + INTRA:         -11.862
REMARK INTER:                 -11.112
REMARK INTRA:                  -0.750
REMARK UNBOUND:                -1.025
REMARK SMILES CN(C)CCc1ccc(CNC(=O)Cc2ccc3sccc3c2)cc1
REMARK SMILES IDX 6 1 7 2 8 3 9 4 24 5 25 6 5 7 4 8 2 9 1 10 3 11 10 12 11 13
REMARK SMILES IDX 12 14 13 15 14 17 15 18 16 19 23 20 17 21 22 22 18 23 21 24
REMARK SMILES IDX 19 25 20 26
REMARK H PARENT 11 16
ROOT
ATOM      1  C   UNL     1       0.024  44.732  55.591  1.00  0.00    -0.047 A 
ATOM      2  C   UNL     1      -0.718  44.027  54.629  1.00  0.00     0.004 A 
ATOM      3  C   UNL     1      -0.098  43.554  53.470  1.00  0.00     0.006 A 
ATOM      4  C   UNL     1       1.271  43.782  53.251  1.00  0.00    -0.029 A 
ATOM      5  C   UNL     1       2.014  44.479  54.218  1.00  0.00     0.006 A 
ATOM      6  C   UNL     1       1.393  44.959  55.375  1.00  0.00     0.004 A 
ENDROOT
BRANCH   1   7
ATOM      7  C   UNL     1      -0.659  45.296  56.810  1.00  0.00     0.051 C 
BRANCH   7   8
ATOM      8  C   UNL     1       0.269  46.246  57.577  1.00  0.00     0.088 C 
BRANCH   8   9
ATOM      9  N   UNL     1      -0.463  46.957  58.649  1.00  0.00    -0.309 NA
ATOM     10  C   UNL     1       0.478  47.711  59.493  1.00  0.00     0.104 C 
ATOM     11  C   UNL     1      -1.470  47.874  58.091  1.00  0.00     0.104 C 
ENDBRANCH   8   9
ENDBRANCH   7   8
ENDBRANCH   1   7
BRANCH   4  12
ATOM     12  C   UNL     1       1.933  43.297  51.989  1.00  0.00     0.151 C 
BRANCH  12  13
ATOM     13  N   UNL     1       2.706  44.368  51.362  1.00  0.00    -0.352 N 
ATOM     14  C   UNL     1       4.134  44.324  51.247  1.00  0.00     0.224 C 
ATOM     15  O   UNL     1       4.778  43.328  51.682  1.00  0.00    -0.275 OA
ATOM     16  H   UNL     1       2.192  45.203  51.003  1.00  0.00     0.163 HD
BRANCH  14  17
ATOM     17  C   UNL     1       4.884  45.460  50.618  1.00  0.00     0.135 C 
BRANCH  17  18
ATOM     18  C   UNL     1       5.882  46.027  51.592  1.00  0.00    -0.038 A 
ATOM     19  C   UNL     1       5.439  46.630  52.791  1.00  0.00     0.006 A 
ATOM     20  C   UNL     1       7.265  45.917  51.334  1.00  0.00     0.013 A 
ATOM     21  C   UNL     1       6.363  47.137  53.720  1.00  0.00     0.020 A 
ATOM     22  C   UNL     1       8.172  46.429  52.266  1.00  0.00    -0.007 A 
ATOM     23  C   UNL     1       7.717  47.024  53.429  1.00  0.00     0.034 A 
ATOM     24  C   UNL     1       9.566  46.407  52.159  1.00  0.00     0.020 A 
ATOM     25  S   UNL     1       9.028  47.535  54.343  1.00  0.00    -0.144 S 
ATOM     26  C   UNL     1      10.200  46.995  53.252  1.00  0.00     0.066 A 
ENDBRANCH  17  18
ENDBRANCH  14  17
ENDBRANCH  12  13
ENDBRANCH   4  12
TORSDOF 7
ENDMDL
MODEL 4
REMARK VINA RESULT:    -7.654      4.498      7.601
REMARK INTER + INTRA:         -11.812
REMARK INTER:                 -10.855
REMARK INTRA:                  -0.957
REMARK UNBOUND:                -1.025
REMARK SMILES CN(C)CCc1ccc(CNC(=O)Cc2ccc3sccc3c2)cc1
REMARK SMILES IDX 6 1 7 2 8 3 9 4 24 5 25 6 5 7 4 8 2 9 1 10 3 11 10 12 11 13
REMARK SMILES IDX 12 14 13 15 14 17 15 18 16 19 23 20 17 21 22 22 18 23 21 24
REMARK SMILES IDX 19 25 20 26
REMARK H PARENT 11 16
ROOT
ATOM      1  C   UNL     1       0.369  45.457  56.278  1.00  0.00    -0.047 A 
ATOM      2  C   UNL     1       1.594  45.081  55.706  1.00  0.00     0.004 A 
ATOM      3  C   UNL     1       1.625  44.183  54.636  1.00  0.00     0.006 A 
ATOM      4  C   UNL     1       0.433  43.642  54.126  1.00  0.00    -0.029 A 
ATOM      5  C   UNL     1      -0.793  44.026  54.694  1.00  0.00     0.006 A 
ATOM      6  C   UNL     1      -0.824  44.920  55.769  1.00  0.00     0.004 A 
ENDROOT
BRANCH   1   7
ATOM      7  C   UNL     1       0.342  46.377  57.472  1.00  0.00     0.051 C 
BRANCH   7   8
ATOM      8  C   UNL     1      -1.072  46.909  57.731  1.00  0.00     0.088 C 
BRANCH   8   9
ATOM      9  N   UNL     1      -1.172  47.530  59.072  1.00  0.00    -0.309 NA
ATOM     10  C   UNL     1       0.169  47.862  59.579  1.00  0.00     0.104 C 
ATOM     11  C   UNL     1      -2.002  48.745  59.036  1.00  0.00     0.104 C 
ENDBRANCH   8   9
ENDBRANCH   7   8
ENDBRANCH   1   7
BRANCH   4  12
ATOM     12  C   UNL     1       0.467  42.652  52.992  1.00  0.00     0.151 C 
BRANCH  12  13
ATOM     13  N   UNL     1       1.844  42.342  52.613  1.00  0.00    -0.352 N 
ATOM     14  C   UNL     1       2.508  42.990  51.519  1.00  0.00     0.224 C 
ATOM     15  O   UNL     1       1.911  43.877  50.847  1.00  0.00    -0.275 OA
ATOM     16  H   UNL     1       2.352  41.606  53.151  1.00  0.00     0.163 HD
BRANCH  14  17
ATOM     17  C   UNL     1       3.914  42.619  51.152  1.00  0.00     0.135 C 
BRANCH  17  18
ATOM     18  C   UNL     1       4.866  43.706  51.572  1.00  0.00    -0.038 A 
ATOM     19  C   UNL     1       5.713  44.314  50.618  1.00  0.00     0.006 A 
ATOM     20  C   UNL     1       4.884  44.154  52.910  1.00  0.00     0.013 A 
ATOM     21  C   UNL     1       6.586  45.348  50.993  1.00  0.00     0.020 A 
ATOM     22  C   UNL     1       5.759  45.183  53.269  1.00  0.00    -0.007 A 
ATOM     23  C   UNL     1       6.588  45.758  52.321  1.00  0.00     0.034 A 
ATOM     24  C   UNL     1       5.906  45.735  54.545  1.00  0.00     0.020 A 
ATOM     25  S   UNL     1       7.514  46.955  53.044  1.00  0.00    -0.144 S 
ATOM     26  C   UNL     1       6.860  46.750  54.588  1.00  0.00     0.066 A 
ENDBRANCH  17  18
ENDBRANCH  14  17
ENDBRANCH  12  13
ENDBRANCH   4  12
TORSDOF 7
ENDMDL
MODEL 5
REMARK VINA RESULT:    -7.559      2.766      7.263
REMARK INTER + INTRA:         -11.677
REMARK INTER:                 -10.980
REMARK INTRA:                  -0.697
REMARK UNBOUND:                -1.025
REMARK SMILES CN(C)CCc1ccc(CNC(=O)Cc2ccc3sccc3c2)cc1
REMARK SMILES IDX 6 1 7 2 8 3 9 4 24 5 25 6 5 7 4 8 2 9 1 10 3 11 10 12 11 13
REMARK SMILES IDX 12 14 13 15 14 17 15 18 16 19 23 20 17 21 22 22 18 23 21 24
REMARK SMILES IDX 19 25 20 26
REMARK H PARENT 11 16
ROOT
ATOM      1  C   UNL     1       4.867  41.339  49.012  1.00  0.00    -0.047 A 
ATOM      2  C   UNL     1       5.856  41.678  48.075  1.00  0.00     0.004 A 
ATOM      3  C   UNL     1       6.801  42.663  48.374  1.00  0.00     0.006 A 
ATOM      4  C   UNL     1       6.768  43.329  49.611  1.00  0.00    -0.029 A 
ATOM      5  C   UNL     1       5.784  42.983  50.551  1.00  0.00     0.006 A 
ATOM      6  C   UNL     1       4.834  42.002  50.250  1.00  0.00     0.004 A 
ENDROOT
BRANCH   1   7
ATOM      7  C   UNL     1       3.811  40.322  48.665  1.00  0.00     0.051 C 
BRANCH   7   8
ATOM      8  C   UNL     1       3.522  40.313  47.160  1.00  0.00     0.088 C 
BRANCH   8   9
ATOM      9  N   UNL     1       2.379  39.427  46.840  1.00  0.00    -0.309 NA
ATOM     10  C   UNL     1       2.027  39.546  45.416  1.00  0.00     0.104 C 
ATOM     11  C   UNL     1       2.688  38.023  47.157  1.00  0.00     0.104 C 
ENDBRANCH   8   9
ENDBRANCH   7   8
ENDBRANCH   1   7
BRANCH   4  12
ATOM     12  C   UNL     1       7.769  44.410  49.922  1.00  0.00     0.151 C 
BRANCH  12  13
ATOM     13  N   UNL     1       7.191  45.412  50.816  1.00  0.00    -0.352 N 
ATOM     14  C   UNL     1       7.996  46.304  51.599  1.00  0.00     0.224 C 
ATOM     15  O   UNL     1       9.256  46.256  51.524  1.00  0.00    -0.275 OA
ATOM     16  H   UNL     1       6.152  45.461  50.899  1.00  0.00     0.163 HD
BRANCH  14  17
ATOM     17  C   UNL     1       7.356  47.297  52.522  1.00  0.00     0.135 C 
BRANCH  17  18
ATOM     18  C   UNL     1       6.174  46.676  53.215  1.00  0.00    -0.038 A 
ATOM     19  C   UNL     1       6.361  45.909  54.388  1.00  0.00     0.006 A 
ATOM     20  C   UNL     1       4.869  46.895  52.724  1.00  0.00     0.013 A 
ATOM     21  C   UNL     1       5.262  45.348  55.058  1.00  0.00     0.020 A 
ATOM     22  C   UNL     1       3.785  46.328  53.401  1.00  0.00    -0.007 A 
ATOM     23  C   UNL     1       3.991  45.573  54.542  1.00  0.00     0.034 A 
ATOM     24  C   UNL     1       2.438  46.442  53.044  1.00  0.00     0.020 A 
ATOM     25  S   UNL     1       2.515  45.032  55.126  1.00  0.00    -0.144 S 
ATOM     26  C   UNL     1       1.589  45.765  53.917  1.00  0.00     0.066 A 
ENDBRANCH  17  18
ENDBRANCH  14  17
ENDBRANCH  12  13
ENDBRANCH   4  12
TORSDOF 7
ENDMDL
