MODEL 1
REMARK VINA RESULT:    -8.777      0.000      0.000
REMARK INTER + INTRA:         -12.227
REMARK INTER:                 -11.343
REMARK INTRA:                  -0.884
REMARK UNBOUND:                -0.884
REMARK SMILES COc1ccc2nc(NC(=O)N3CCC[C@H](Nc4ccccc4)C3)sc2n1
REMARK SMILES IDX 9 1 10 2 11 3 8 5 3 6 4 7 27 8 5 9 26 10 6 11 25 12 7 13
REMARK SMILES IDX 2 14 1 15 12 16 13 17 24 18 14 19 16 20 15 21 17 22 18 24
REMARK SMILES IDX 19 25 23 26 20 27 22 28 21 29
REMARK H PARENT 9 4 17 23
ROOT
ATOM      1  N   UNL     1       3.774  45.112  53.293  1.00  0.00    -0.283 N 
ATOM      2  C   UNL     1       2.715  45.883  52.703  1.00  0.00     0.323 C 
ATOM      3  O   UNL     1       2.759  47.143  52.734  1.00  0.00    -0.248 OA
ATOM      4  H   UNL     1       3.564  44.136  53.602  1.00  0.00     0.174 HD
ENDROOT
BRANCH   1   5
ATOM      5  C   UNL     1       5.099  45.606  53.534  1.00  0.00     0.193 A 
ATOM      6  C   UNL     1       9.382  47.353  54.260  1.00  0.00     0.214 A 
ATOM      7  C   UNL     1       9.443  47.018  52.890  1.00  0.00     0.071 A 
ATOM      8  N   UNL     1       8.235  47.123  54.971  1.00  0.00    -0.201 NA
ATOM      9  C   UNL     1       8.327  46.447  52.257  1.00  0.00     0.037 A 
ATOM     10  C   UNL     1       7.165  46.570  54.350  1.00  0.00     0.149 A 
ATOM     11  C   UNL     1       7.179  46.228  53.015  1.00  0.00     0.103 A 
ATOM     12  S   UNL     1       5.671  46.211  55.019  1.00  0.00    -0.076 S 
ATOM     13  N   UNL     1       6.025  45.691  52.545  1.00  0.00    -0.218 NA
BRANCH   6  14
ATOM     14  O   UNL     1      10.502  47.919  54.876  1.00  0.00    -0.481 OA
ATOM     15  C   UNL     1      10.947  47.532  56.169  1.00  0.00     0.280 C 
ENDBRANCH   6  14
ENDBRANCH   1   5
BRANCH   2  16
ATOM     16  N   UNL     1       1.565  45.230  52.134  1.00  0.00    -0.322 N 
ATOM     17  C   UNL     1       0.270  45.310  52.826  1.00  0.00     0.121 C 
ATOM     18  C   UNL     1       1.652  44.512  50.857  1.00  0.00     0.146 C 
ATOM     19  C   UNL     1      -0.737  44.305  52.244  1.00  0.00     0.024 C 
ATOM     20  C   UNL     1       1.155  43.057  51.022  1.00  0.00     0.098 C 
ATOM     21  C   UNL     1      -0.050  42.954  52.005  1.00  0.00     0.028 C 
BRANCH  20  22
ATOM     22  N   UNL     1       2.264  42.192  51.457  1.00  0.00    -0.381 N 
ATOM     23  H   UNL     1       2.194  41.720  52.387  1.00  0.00     0.160 HD
BRANCH  22  24
ATOM     24  C   UNL     1       3.484  41.989  50.714  1.00  0.00     0.034 A 
ATOM     25  C   UNL     1       4.661  42.717  50.989  1.00  0.00     0.025 A 
ATOM     26  C   UNL     1       3.505  41.034  49.683  1.00  0.00     0.025 A 
ATOM     27  C   UNL     1       5.825  42.483  50.249  1.00  0.00     0.002 A 
ATOM     28  C   UNL     1       4.671  40.805  48.947  1.00  0.00     0.002 A 
ATOM     29  C   UNL     1       5.830  41.529  49.230  1.00  0.00     0.000 A 
ENDBRANCH  22  24
ENDBRANCH  20  22
ENDBRANCH   2  16
TORSDOF 5
ENDMDL
MODEL 2
REMARK VINA RESULT:    -8.534      3.323      7.933
REMARK INTER + INTRA:         -11.913
REMARK INTER:                 -11.736
REMARK INTRA:                  -0.177
REMARK UNBOUND:                -0.884
REMARK SMILES COc1ccc2nc(NC(=O)N3CCC[C@H](Nc4ccccc4)C3)sc2n1
REMARK SMILES IDX 9 1 10 2 11 3 8 5 3 6 4 7 27 8 5 9 26 10 6 11 25 12 7 13
REMARK SMILES IDX 2 14 1 15 12 16 13 17 24 18 14 19 16 20 15 21 17 22 18 24
REMARK SMILES IDX 19 25 23 26 20 27 22 28 21 29
REMARK H PARENT 9 4 17 23
ROOT
ATOM      1  N   UNL     1       2.696  44.829  53.417  1.00  0.00    -0.283 N 
ATOM      2  C   UNL     1       3.063  43.742  52.551  1.00  0.00     0.323 C 
ATOM      3  O   UNL     1       2.647  42.575  52.791  1.00  0.00    -0.248 OA
ATOM      4  H   UNL     1       3.318  45.668  53.450  1.00  0.00     0.174 HD
ENDROOT
BRANCH   1   5
ATOM      5  C   UNL     1       1.554  44.824  54.283  1.00  0.00     0.193 A 
ATOM      6  C   UNL     1      -2.160  44.658  57.130  1.00  0.00     0.214 A 
ATOM      7  C   UNL     1      -2.723  44.230  55.909  1.00  0.00     0.071 A 
ATOM      8  N   UNL     1      -0.832  44.981  57.198  1.00  0.00    -0.201 NA
ATOM      9  C   UNL     1      -1.919  44.135  54.761  1.00  0.00     0.037 A 
ATOM     10  C   UNL     1      -0.066  44.888  56.083  1.00  0.00     0.149 A 
ATOM     11  C   UNL     1      -0.572  44.474  54.869  1.00  0.00     0.103 A 
ATOM     12  S   UNL     1       1.569  45.222  55.939  1.00  0.00    -0.076 S 
ATOM     13  N   UNL     1       0.328  44.430  53.855  1.00  0.00    -0.218 NA
BRANCH   6  14
ATOM     14  O   UNL     1      -2.974  44.747  58.263  1.00  0.00    -0.481 OA
ATOM     15  C   UNL     1      -3.730  45.910  58.578  1.00  0.00     0.280 C 
ENDBRANCH   6  14
ENDBRANCH   1   5
BRANCH   2  16
ATOM     16  N   UNL     1       3.958  43.959  51.445  1.00  0.00    -0.322 N 
ATOM     17  C   UNL     1       4.700  42.823  50.879  1.00  0.00     0.121 C 
ATOM     18  C   UNL     1       4.121  45.290  50.847  1.00  0.00     0.146 C 
ATOM     19  C   UNL     1       5.819  43.298  49.939  1.00  0.00     0.024 C 
ATOM     20  C   UNL     1       5.613  45.700  50.845  1.00  0.00     0.098 C 
ATOM     21  C   UNL     1       6.556  44.491  50.563  1.00  0.00     0.028 C 
BRANCH  20  22
ATOM     22  N   UNL     1       5.958  46.351  52.119  1.00  0.00    -0.381 N 
ATOM     23  H   UNL     1       5.184  46.672  52.743  1.00  0.00     0.160 HD
BRANCH  22  24
ATOM     24  C   UNL     1       7.304  46.635  52.554  1.00  0.00     0.034 A 
ATOM     25  C   UNL     1       8.395  46.656  51.659  1.00  0.00     0.025 A 
ATOM     26  C   UNL     1       7.541  46.902  53.914  1.00  0.00     0.025 A 
ATOM     27  C   UNL     1       9.683  46.944  52.122  1.00  0.00     0.002 A 
ATOM     28  C   UNL     1       8.830  47.189  54.370  1.00  0.00     0.002 A 
ATOM     29  C   UNL     1       9.900  47.211  53.475  1.00  0.00     0.000 A 
ENDBRANCH  22  24
ENDBRANCH  20  22
ENDBRANCH   2  16
TORSDOF 5
ENDMDL
MODEL 3
REMARK VINA RESULT:    -8.162      3.934      7.461
REMARK INTER + INTRA:         -11.432
REMARK INTER:                 -10.771
REMARK INTRA:                  -0.661
REMARK UNBOUND:                -0.884
REMARK SMILES COc1ccc2nc(NC(=O)N3CCC[C@H](Nc4ccccc4)C3)sc2n1
REMARK SMILES IDX 9 1 10 2 11 3 8 5 3 6 4 7 27 8 5 9 26 10 6 11 25 12 7 13
REMARK SMILES IDX 2 14 1 15 12 16 13 17 24 18 14 19 16 20 15 21 17 22 18 24
REMARK SMILES IDX 19 25 23 26 20 27 22 28 21 29
REMARK H PARENT 9 4 17 23
ROOT
ATOM      1  N   UNL     1       1.682  44.481  53.865  1.00  0.00    -0.283 N 
ATOM      2  C   UNL     1       2.103  45.273  52.743  1.00  0.00     0.323 C 
ATOM      3  O   UNL     1       1.560  46.389  52.518  1.00  0.00    -0.248 OA
ATOM      4  H   UNL     1       1.839  43.449  53.830  1.00  0.00     0.174 HD
ENDROOT
BRANCH   1   5
ATOM      5  C   UNL     1       1.010  45.003  55.019  1.00  0.00     0.193 A 
ATOM      6  C   UNL     1      -1.174  46.851  58.726  1.00  0.00     0.214 A 
ATOM      7  C   UNL     1       0.176  47.141  59.021  1.00  0.00     0.071 A 
ATOM      8  N   UNL     1      -1.496  46.184  57.575  1.00  0.00    -0.201 NA
ATOM      9  C   UNL     1       1.189  46.746  58.132  1.00  0.00     0.037 A 
ATOM     10  C   UNL     1      -0.510  45.805  56.726  1.00  0.00     0.149 A 
ATOM     11  C   UNL     1       0.821  46.068  56.972  1.00  0.00     0.103 A 
ATOM     12  S   UNL     1      -0.674  44.993  55.270  1.00  0.00    -0.076 S 
ATOM     13  N   UNL     1       1.681  45.628  56.020  1.00  0.00    -0.218 NA
BRANCH   6  14
ATOM     14  O   UNL     1      -2.170  47.250  59.622  1.00  0.00    -0.481 OA
ATOM     15  C   UNL     1      -2.150  48.508  60.284  1.00  0.00     0.280 C 
ENDBRANCH   6  14
ENDBRANCH   1   5
BRANCH   2  16
ATOM     16  N   UNL     1       3.099  44.775  51.830  1.00  0.00    -0.322 N 
ATOM     17  C   UNL     1       3.371  43.331  51.772  1.00  0.00     0.121 C 
ATOM     18  C   UNL     1       3.826  45.678  50.929  1.00  0.00     0.146 C 
ATOM     19  C   UNL     1       4.660  43.037  50.988  1.00  0.00     0.024 C 
ATOM     20  C   UNL     1       5.352  45.514  51.118  1.00  0.00     0.098 C 
ATOM     21  C   UNL     1       5.757  44.033  51.388  1.00  0.00     0.028 C 
BRANCH  20  22
ATOM     22  N   UNL     1       5.822  46.394  52.201  1.00  0.00    -0.381 N 
ATOM     23  H   UNL     1       5.114  46.919  52.762  1.00  0.00     0.160 HD
BRANCH  22  24
ATOM     24  C   UNL     1       7.210  46.635  52.515  1.00  0.00     0.034 A 
ATOM     25  C   UNL     1       8.225  46.568  51.537  1.00  0.00     0.025 A 
ATOM     26  C   UNL     1       7.566  46.950  53.838  1.00  0.00     0.025 A 
ATOM     27  C   UNL     1       9.557  46.816  51.883  1.00  0.00     0.002 A 
ATOM     28  C   UNL     1       8.899  47.197  54.178  1.00  0.00     0.002 A 
ATOM     29  C   UNL     1       9.893  47.131  53.201  1.00  0.00     0.000 A 
ENDBRANCH  22  24
ENDBRANCH  20  22
ENDBRANCH   2  16
TORSDOF 5
ENDMDL
MODEL 4
REMARK VINA RESULT:    -8.159      3.329      8.080
REMARK INTER + INTRA:         -11.428
REMARK INTER:                 -11.665
REMARK INTRA:                   0.236
REMARK UNBOUND:                -0.884
REMARK SMILES COc1ccc2nc(NC(=O)N3CCC[C@H](Nc4ccccc4)C3)sc2n1
REMARK SMILES IDX 9 1 10 2 11 3 8 5 3 6 4 7 27 8 5 9 26 10 6 11 25 12 7 13
REMARK SMILES IDX 2 14 1 15 12 16 13 17 24 18 14 19 16 20 15 21 17 22 18 24
REMARK SMILES IDX 19 25 23 26 20 27 22 28 21 29
REMARK H PARENT 9 4 17 23
ROOT
ATOM      1  N   UNL     1       3.164  44.551  52.962  1.00  0.00    -0.283 N 
ATOM      2  C   UNL     1       3.791  43.562  52.129  1.00  0.00     0.323 C 
ATOM      3  O   UNL     1       3.562  42.337  52.322  1.00  0.00    -0.248 OA
ATOM      4  H   UNL     1       3.625  45.483  53.059  1.00  0.00     0.174 HD
ENDROOT
BRANCH   1   5
ATOM      5  C   UNL     1       1.964  44.332  53.716  1.00  0.00     0.193 A 
ATOM      6  C   UNL     1      -2.007  43.752  56.129  1.00  0.00     0.214 A 
ATOM      7  C   UNL     1      -1.281  44.608  56.984  1.00  0.00     0.071 A 
ATOM      8  N   UNL     1      -1.460  43.340  54.944  1.00  0.00    -0.201 NA
ATOM      9  C   UNL     1       0.005  45.038  56.619  1.00  0.00     0.037 A 
ATOM     10  C   UNL     1      -0.217  43.760  54.603  1.00  0.00     0.149 A 
ATOM     11  C   UNL     1       0.529  44.597  55.406  1.00  0.00     0.103 A 
ATOM     12  S   UNL     1       0.638  43.391  53.210  1.00  0.00    -0.076 S 
ATOM     13  N   UNL     1       1.750  44.928  54.917  1.00  0.00    -0.218 NA
BRANCH   6  14
ATOM     14  O   UNL     1      -3.286  43.332  56.507  1.00  0.00    -0.481 OA
ATOM     15  C   UNL     1      -3.980  43.885  57.618  1.00  0.00     0.280 C 
ENDBRANCH   6  14
ENDBRANCH   1   5
BRANCH   2  16
ATOM     16  N   UNL     1       4.734  43.954  51.115  1.00  0.00    -0.322 N 
ATOM     17  C   UNL     1       5.605  42.940  50.504  1.00  0.00     0.121 C 
ATOM     18  C   UNL     1       4.821  45.345  50.652  1.00  0.00     0.146 C 
ATOM     19  C   UNL     1       6.738  43.589  49.694  1.00  0.00     0.024 C 
ATOM     20  C   UNL     1       6.269  45.870  50.794  1.00  0.00     0.098 C 
ATOM     21  C   UNL     1       7.328  44.772  50.473  1.00  0.00     0.028 C 
BRANCH  20  22
ATOM     22  N   UNL     1       6.475  46.421  52.144  1.00  0.00    -0.381 N 
ATOM     23  H   UNL     1       5.637  46.690  52.708  1.00  0.00     0.160 HD
BRANCH  22  24
ATOM     24  C   UNL     1       7.766  46.677  52.735  1.00  0.00     0.034 A 
ATOM     25  C   UNL     1       7.911  47.062  54.085  1.00  0.00     0.025 A 
ATOM     26  C   UNL     1       8.920  46.539  51.944  1.00  0.00     0.025 A 
ATOM     27  C   UNL     1       9.183  47.293  54.621  1.00  0.00     0.002 A 
ATOM     28  C   UNL     1      10.187  46.771  52.485  1.00  0.00     0.002 A 
ATOM     29  C   UNL     1      10.318  47.147  53.822  1.00  0.00     0.000 A 
ENDBRANCH  22  24
ENDBRANCH  20  22
ENDBRANCH   2  16
TORSDOF 5
ENDMDL
MODEL 5
REMARK VINA RESULT:    -8.072      2.681      7.291
REMARK INTER + INTRA:         -11.315
REMARK INTER:                 -10.482
REMARK INTRA:                  -0.833
REMARK UNBOUND:                -0.884
REMARK SMILES COc1ccc2nc(NC(=O)N3CCC[C@H](Nc4ccccc4)C3)sc2n1
REMARK SMILES IDX 9 1 10 2 11 3 8 5 3 6 4 7 27 8 5 9 26 10 6 11 25 12 7 13
REMARK SMILES IDX 2 14 1 15 12 16 13 17 24 18 14 19 16 20 15 21 17 22 18 24
REMARK SMILES IDX 19 25 23 26 20 27 22 28 21 29
REMARK H PARENT 9 4 17 23
ROOT
ATOM      1  N   UNL     1       4.663  46.412  54.311  1.00  0.00    -0.283 N 
ATOM      2  C   UNL     1       5.904  45.736  54.569  1.00  0.00     0.323 C 
ATOM      3  O   UNL     1       5.935  44.754  55.360  1.00  0.00    -0.248 OA
ATOM      4  H   UNL     1       4.697  47.405  53.988  1.00  0.00     0.174 HD
ENDROOT
BRANCH   1   5
ATOM      5  C   UNL     1       3.367  45.833  54.513  1.00  0.00     0.193 A 
ATOM      6  C   UNL     1      -0.928  44.080  55.154  1.00  0.00     0.214 A 
ATOM      7  C   UNL     1      -0.658  44.635  56.423  1.00  0.00     0.071 A 
ATOM      8  N   UNL     1       0.004  44.169  54.154  1.00  0.00    -0.201 NA
ATOM      9  C   UNL     1       0.567  45.279  56.661  1.00  0.00     0.037 A 
ATOM     10  C   UNL     1       1.183  44.791  54.396  1.00  0.00     0.149 A 
ATOM     11  C   UNL     1       1.490  45.348  55.620  1.00  0.00     0.103 A 
ATOM     12  S   UNL     1       2.453  45.021  53.328  1.00  0.00    -0.076 S 
ATOM     13  N   UNL     1       2.708  45.939  55.695  1.00  0.00    -0.218 NA
BRANCH   6  14
ATOM     14  O   UNL     1      -2.152  43.441  54.933  1.00  0.00    -0.481 OA
ATOM     15  C   UNL     1      -3.383  44.146  54.852  1.00  0.00     0.280 C 
ENDBRANCH   6  14
ENDBRANCH   1   5
BRANCH   2  16
ATOM     16  N   UNL     1       7.130  46.210  53.983  1.00  0.00    -0.322 N 
ATOM     17  C   UNL     1       7.627  47.550  54.326  1.00  0.00     0.121 C 
ATOM     18  C   UNL     1       7.915  45.368  53.071  1.00  0.00     0.146 C 
ATOM     19  C   UNL     1       8.751  47.991  53.376  1.00  0.00     0.024 C 
ATOM     20  C   UNL     1       8.154  46.101  51.731  1.00  0.00     0.098 C 
ATOM     21  C   UNL     1       8.386  47.630  51.930  1.00  0.00     0.028 C 
BRANCH  20  22
ATOM     22  N   UNL     1       7.029  45.855  50.814  1.00  0.00    -0.381 N 
ATOM     23  H   UNL     1       6.566  46.674  50.359  1.00  0.00     0.160 HD
BRANCH  22  24
ATOM     24  C   UNL     1       6.471  44.554  50.534  1.00  0.00     0.034 A 
ATOM     25  C   UNL     1       5.270  44.109  51.126  1.00  0.00     0.025 A 
ATOM     26  C   UNL     1       7.142  43.700  49.642  1.00  0.00     0.025 A 
ATOM     27  C   UNL     1       4.759  42.843  50.821  1.00  0.00     0.002 A 
ATOM     28  C   UNL     1       6.627  42.436  49.342  1.00  0.00     0.002 A 
ATOM     29  C   UNL     1       5.436  42.009  49.930  1.00  0.00     0.000 A 
ENDBRANCH  22  24
ENDBRANCH  20  22
ENDBRANCH   2  16
TORSDOF 5
ENDMDL
