ligand_10_conformer_3_docked
     RDKit          3D

 50 53  0  0  0  0  0  0  0  0999 V2000
   -3.5460   42.7890   59.0030 C   0  0  0  0  0  0  0  0  0  0  0  0
   -3.1840   43.6760   57.8490 C   0  0  0  0  0  0  0  0  0  0  0  0
   -3.3000   45.0690   57.9650 C   0  0  0  0  0  0  0  0  0  0  0  0
   -2.9340   45.8950   56.8990 C   0  0  0  0  0  0  0  0  0  0  0  0
   -2.4290   45.3390   55.7210 C   0  0  0  0  0  0  0  0  0  0  0  0
   -2.2710   43.9540   55.6020 C   0  0  0  0  0  0  0  0  0  0  0  0
   -1.7710   43.4350   54.3980 O   0  0  0  0  0  0  0  0  0  0  0  0
   -0.6330   43.8950   53.7210 C   0  0  0  0  0  0  0  0  0  0  0  0
   -0.7030   44.8590   52.7040 C   0  0  0  0  0  0  0  0  0  0  0  0
    0.4600   45.2770   52.0540 C   0  0  0  0  0  0  0  0  0  0  0  0
    1.6950   44.7140   52.4150 C   0  0  0  0  0  0  0  0  0  0  0  0
    2.9480   45.1310   51.7490 C   0  0  0  0  0  0  0  0  0  0  0  0
    2.8980   45.9120   50.7580 O   0  0  0  0  0  0  0  0  0  0  0  0
    4.2210   44.6840   52.2500 N   0  0  0  0  0  0  0  0  0  0  0  0
    5.4630   44.8220   51.5370 C   0  0  0  0  0  0  0  0  0  0  0  0
    5.7540   43.9400   50.4870 C   0  0  0  0  0  0  0  0  0  0  0  0
    6.9490   44.0570   49.7740 C   0  0  0  0  0  0  0  0  0  0  0  0
    7.8600   45.0660   50.0920 C   0  0  0  0  0  0  0  0  0  0  0  0
    7.5730   45.9830   51.1140 C   0  0  0  0  0  0  0  0  0  0  0  0
    8.5700   47.0690   51.4600 C   0  0  2  0  0  0  0  0  0  0  0  0
    9.9170   46.4810   51.9530 C   0  0  0  0  0  0  0  0  0  0  0  0
   10.0900   46.9020   53.4210 C   0  0  0  0  0  0  0  0  0  0  0  0
    8.9390   47.7940   53.6560 C   0  0  0  0  0  0  0  0  0  0  0  0
    8.7330   48.4060   54.7370 O   0  0  0  0  0  0  0  0  0  0  0  0
    8.0710   47.8880   52.5500 N   0  0  0  0  0  0  0  0  0  0  0  0
    6.3700   45.8560   51.8330 C   0  0  0  0  0  0  0  0  0  0  0  0
    1.7310   43.7600   53.3870 N   0  0  0  0  0  0  0  0  0  0  0  0
    0.6120   43.3420   54.0350 C   0  0  0  0  0  0  0  0  0  0  0  0
   -2.6620   43.1220   56.6690 C   0  0  0  0  0  0  0  0  0  0  0  0
   -3.3330   43.3110   59.9476 H   0  0  0  0  0  0  0  0  0  0  0  0
   -4.6168   42.5421   58.9539 H   0  0  0  0  0  0  0  0  0  0  0  0
   -2.9537   41.8634   58.9539 H   0  0  0  0  0  0  0  0  0  0  0  0
   -3.6800   45.5122   58.8973 H   0  0  0  0  0  0  0  0  0  0  0  0
   -3.0438   46.9859   56.9876 H   0  0  0  0  0  0  0  0  0  0  0  0
   -2.1538   45.9945   54.8816 H   0  0  0  0  0  0  0  0  0  0  0  0
   -1.6756   45.2862   52.4183 H   0  0  0  0  0  0  0  0  0  0  0  0
    0.4093   46.0417   51.2649 H   0  0  0  0  0  0  0  0  0  0  0  0
    4.2640   44.3140   53.2250 H   0  0  0  0  0  0  0  0  0  0  0  0
    5.0357   43.1499   50.2228 H   0  0  0  0  0  0  0  0  0  0  0  0
    7.1731   43.3523   48.9596 H   0  0  0  0  0  0  0  0  0  0  0  0
    8.8075   45.1423   49.5384 H   0  0  0  0  0  0  0  0  0  0  0  0
    8.7160   47.6525   50.5390 H   0  0  0  0  0  0  0  0  0  0  0  0
    9.8995   45.3839   51.8757 H   0  0  0  0  0  0  0  0  0  0  0  0
   10.7515   46.8529   51.3405 H   0  0  0  0  0  0  0  0  0  0  0  0
   10.0542   46.0283   54.0884 H   0  0  0  0  0  0  0  0  0  0  0  0
   11.0575   47.3865   53.6187 H   0  0  0  0  0  0  0  0  0  0  0  0
    7.1990   48.4610   52.5210 H   0  0  0  0  0  0  0  0  0  0  0  0
    6.1364   46.5723   52.6345 H   0  0  0  0  0  0  0  0  0  0  0  0
    0.6862   42.5650   54.8101 H   0  0  0  0  0  0  0  0  0  0  0  0
   -2.5578   42.0308   56.5774 H   0  0  0  0  0  0  0  0  0  0  0  0
  1  2  1  0
  2  3  2  0
  3  4  1  0
  4  5  2  0
  5  6  1  0
  6  7  1  0
  7  8  1  0
  8  9  2  0
  9 10  1  0
 10 11  2  0
 11 12  1  0
 12 13  2  0
 12 14  1  0
 14 15  1  0
 15 16  2  0
 16 17  1  0
 17 18  2  0
 18 19  1  0
 19 20  1  0
 20 21  1  0
 21 22  1  0
 22 23  1  0
 23 24  2  0
 23 25  1  0
 19 26  2  0
 11 27  1  0
 27 28  2  0
  6 29  2  0
 29  2  1  0
 28  8  1  0
 26 15  1  0
 25 20  1  0
  1 30  1  0
  1 31  1  0
  1 32  1  0
  3 33  1  0
  4 34  1  0
  5 35  1  0
  9 36  1  0
 10 37  1  0
 14 38  1  0
 16 39  1  0
 17 40  1  0
 18 41  1  0
 20 42  1  6
 21 43  1  0
 21 44  1  0
 22 45  1  0
 22 46  1  0
 25 47  1  0
 26 48  1  0
 28 49  1  0
 29 50  1  0
M  END
>  <meeko>  (1) 
{"is_sidechain": [false], "free_energy": -9.724, "intermolecular_energy": -12.566, "internal_energy": -0.854}

$$$$
ligand_10_conformer_3_docked
     RDKit          3D

 50 53  0  0  0  0  0  0  0  0999 V2000
   10.5790   47.3750   55.4690 C   0  0  0  0  0  0  0  0  0  0  0  0
    9.7380   47.2560   54.2330 C   0  0  0  0  0  0  0  0  0  0  0  0
   10.2680   46.6770   53.0710 C   0  0  0  0  0  0  0  0  0  0  0  0
    9.4740   46.5400   51.9290 C   0  0  0  0  0  0  0  0  0  0  0  0
    8.1410   46.9590   51.9470 C   0  0  0  0  0  0  0  0  0  0  0  0
    7.5850   47.5040   53.1100 C   0  0  0  0  0  0  0  0  0  0  0  0
    6.2460   47.9230   53.0820 O   0  0  0  0  0  0  0  0  0  0  0  0
    5.1400   47.1430   53.4470 C   0  0  0  0  0  0  0  0  0  0  0  0
    5.2700   45.9440   54.1660 C   0  0  0  0  0  0  0  0  0  0  0  0
    4.1370   45.1990   54.4960 C   0  0  0  0  0  0  0  0  0  0  0  0
    2.8700   45.6490   54.0900 C   0  0  0  0  0  0  0  0  0  0  0  0
    1.6460   44.8870   54.4210 C   0  0  0  0  0  0  0  0  0  0  0  0
    1.5890   43.6540   54.1560 O   0  0  0  0  0  0  0  0  0  0  0  0
    0.5420   45.5350   55.0780 N   0  0  0  0  0  0  0  0  0  0  0  0
   -0.7690   44.9570   55.2130 C   0  0  0  0  0  0  0  0  0  0  0  0
   -1.2090   44.5420   56.4780 C   0  0  0  0  0  0  0  0  0  0  0  0
   -2.4790   43.9840   56.6370 C   0  0  0  0  0  0  0  0  0  0  0  0
   -3.3290   43.8480   55.5380 C   0  0  0  0  0  0  0  0  0  0  0  0
   -2.9250   44.2910   54.2700 C   0  0  0  0  0  0  0  0  0  0  0  0
   -3.8470   44.1320   53.0800 C   0  0  2  0  0  0  0  0  0  0  0  0
   -3.3520   43.0310   52.1070 C   0  0  0  0  0  0  0  0  0  0  0  0
   -2.9940   43.7210   50.7810 C   0  0  0  0  0  0  0  0  0  0  0  0
   -3.4120   45.1180   51.0010 C   0  0  0  0  0  0  0  0  0  0  0  0
   -3.3410   46.0190   50.1250 O   0  0  0  0  0  0  0  0  0  0  0  0
   -3.8920   45.3580   52.3040 N   0  0  0  0  0  0  0  0  0  0  0  0
   -1.6400   44.8460   54.1140 C   0  0  0  0  0  0  0  0  0  0  0  0
    2.7740   46.8020   53.3690 N   0  0  0  0  0  0  0  0  0  0  0  0
    3.8640   47.5440   53.0400 C   0  0  0  0  0  0  0  0  0  0  0  0
    8.3930   47.6620   54.2520 C   0  0  0  0  0  0  0  0  0  0  0  0
    9.9383   47.2843   56.3586 H   0  0  0  0  0  0  0  0  0  0  0  0
   11.3336   46.5747   55.4775 H   0  0  0  0  0  0  0  0  0  0  0  0
   11.0819   48.3533   55.4775 H   0  0  0  0  0  0  0  0  0  0  0  0
   11.3116   46.3296   53.0583 H   0  0  0  0  0  0  0  0  0  0  0  0
    9.8992   46.1015   51.0142 H   0  0  0  0  0  0  0  0  0  0  0  0
    7.5247   46.8598   51.0412 H   0  0  0  0  0  0  0  0  0  0  0  0
    6.2667   45.5913   54.4697 H   0  0  0  0  0  0  0  0  0  0  0  0
    4.2356   44.2659   55.0701 H   0  0  0  0  0  0  0  0  0  0  0  0
    0.7210   46.4420   55.5620 H   0  0  0  0  0  0  0  0  0  0  0  0
   -0.5494   44.6568   57.3508 H   0  0  0  0  0  0  0  0  0  0  0  0
   -2.8108   43.6505   57.6313 H   0  0  0  0  0  0  0  0  0  0  0  0
   -4.3211   43.3909   55.6672 H   0  0  0  0  0  0  0  0  0  0  0  0
   -4.8321   43.8691   53.4928 H   0  0  0  0  0  0  0  0  0  0  0  0
   -2.4646   42.5318   52.5233 H   0  0  0  0  0  0  0  0  0  0  0  0
   -4.1302   42.2692   51.9522 H   0  0  0  0  0  0  0  0  0  0  0  0
   -1.9135   43.6595   50.5841 H   0  0  0  0  0  0  0  0  0  0  0  0
   -3.4812   43.2583   49.9101 H   0  0  0  0  0  0  0  0  0  0  0  0
   -4.2280   46.2810   52.6570 H   0  0  0  0  0  0  0  0  0  0  0  0
   -1.3144   45.1960   53.1233 H   0  0  0  0  0  0  0  0  0  0  0  0
    3.7417   48.4647   52.4506 H   0  0  0  0  0  0  0  0  0  0  0  0
    7.9688   48.1060   55.1647 H   0  0  0  0  0  0  0  0  0  0  0  0
  1  2  1  0
  2  3  2  0
  3  4  1  0
  4  5  2  0
  5  6  1  0
  6  7  1  0
  7  8  1  0
  8  9  2  0
  9 10  1  0
 10 11  2  0
 11 12  1  0
 12 13  2  0
 12 14  1  0
 14 15  1  0
 15 16  2  0
 16 17  1  0
 17 18  2  0
 18 19  1  0
 19 20  1  0
 20 21  1  0
 21 22  1  0
 22 23  1  0
 23 24  2  0
 23 25  1  0
 19 26  2  0
 11 27  1  0
 27 28  2  0
  6 29  2  0
 29  2  1  0
 28  8  1  0
 26 15  1  0
 25 20  1  0
  1 30  1  0
  1 31  1  0
  1 32  1  0
  3 33  1  0
  4 34  1  0
  5 35  1  0
  9 36  1  0
 10 37  1  0
 14 38  1  0
 16 39  1  0
 17 40  1  0
 18 41  1  0
 20 42  1  1
 21 43  1  0
 21 44  1  0
 22 45  1  0
 22 46  1  0
 25 47  1  0
 26 48  1  0
 28 49  1  0
 29 50  1  0
M  END
>  <meeko>  (2) 
{"is_sidechain": [false], "free_energy": -8.97, "intermolecular_energy": -11.571, "internal_energy": -0.875}

$$$$
ligand_10_conformer_3_docked
     RDKit          3D

 50 53  0  0  0  0  0  0  0  0999 V2000
    9.0380   47.9620   54.6220 C   0  0  0  0  0  0  0  0  0  0  0  0
    9.0590   47.1810   53.3410 C   0  0  0  0  0  0  0  0  0  0  0  0
   10.2790   46.7660   52.7880 C   0  0  0  0  0  0  0  0  0  0  0  0
   10.2960   46.0150   51.6100 C   0  0  0  0  0  0  0  0  0  0  0  0
    9.0970   45.6530   50.9910 C   0  0  0  0  0  0  0  0  0  0  0  0
    7.8700   46.0270   51.5500 C   0  0  0  0  0  0  0  0  0  0  0  0
    6.6890   45.6530   50.8900 O   0  0  0  0  0  0  0  0  0  0  0  0
    5.4240   45.5370   51.4840 C   0  0  0  0  0  0  0  0  0  0  0  0
    5.2240   44.8580   52.6960 C   0  0  0  0  0  0  0  0  0  0  0  0
    3.9420   44.7620   53.2410 C   0  0  0  0  0  0  0  0  0  0  0  0
    2.8560   45.3330   52.5590 C   0  0  0  0  0  0  0  0  0  0  0  0
    1.4830   45.2520   53.1040 C   0  0  0  0  0  0  0  0  0  0  0  0
    0.5170   45.7060   52.4310 O   0  0  0  0  0  0  0  0  0  0  0  0
    1.2430   44.6230   54.3770 N   0  0  0  0  0  0  0  0  0  0  0  0
    0.0030   44.7160   55.1010 C   0  0  0  0  0  0  0  0  0  0  0  0
   -0.9920   43.7530   54.8840 C   0  0  0  0  0  0  0  0  0  0  0  0
   -2.2010   43.8160   55.5800 C   0  0  0  0  0  0  0  0  0  0  0  0
   -2.4240   44.8320   56.5100 C   0  0  0  0  0  0  0  0  0  0  0  0
   -1.4280   45.7850   56.7710 C   0  0  0  0  0  0  0  0  0  0  0  0
   -1.6800   46.8900   57.7740 C   0  0  2  0  0  0  0  0  0  0  0  0
   -3.0570   46.7390   58.4690 C   0  0  0  0  0  0  0  0  0  0  0  0
   -3.9120   47.9480   58.0560 C   0  0  0  0  0  0  0  0  0  0  0  0
   -2.9740   48.7780   57.2780 C   0  0  0  0  0  0  0  0  0  0  0  0
   -3.2660   49.9030   56.7950 O   0  0  0  0  0  0  0  0  0  0  0  0
   -1.7090   48.1810   57.1110 N   0  0  0  0  0  0  0  0  0  0  0  0
   -0.2140   45.7200   56.0620 C   0  0  0  0  0  0  0  0  0  0  0  0
    3.0740   45.9620   51.3690 N   0  0  0  0  0  0  0  0  0  0  0  0
    4.3140   46.0710   50.8240 C   0  0  0  0  0  0  0  0  0  0  0  0
    7.8560   46.8040   52.7240 C   0  0  0  0  0  0  0  0  0  0  0  0
    9.0567   47.2678   55.4750 H   0  0  0  0  0  0  0  0  0  0  0  0
    9.9188   48.6195   54.6650 H   0  0  0  0  0  0  0  0  0  0  0  0
    8.1231   48.5713   54.6650 H   0  0  0  0  0  0  0  0  0  0  0  0
   11.2247   47.0323   53.2828 H   0  0  0  0  0  0  0  0  0  0  0  0
   11.2558   45.7080   51.1688 H   0  0  0  0  0  0  0  0  0  0  0  0
    9.1177   45.0703   50.0583 H   0  0  0  0  0  0  0  0  0  0  0  0
    6.0781   44.4010   53.2171 H   0  0  0  0  0  0  0  0  0  0  0  0
    3.7842   44.2427   54.1978 H   0  0  0  0  0  0  0  0  0  0  0  0
    1.9790   43.9910   54.7600 H   0  0  0  0  0  0  0  0  0  0  0  0
   -0.8194   42.9423   54.1608 H   0  0  0  0  0  0  0  0  0  0  0  0
   -2.9802   43.0621   55.3944 H   0  0  0  0  0  0  0  0  0  0  0  0
   -3.3857   44.8861   57.0413 H   0  0  0  0  0  0  0  0  0  0  0  0
   -0.8657   46.8221   58.5104 H   0  0  0  0  0  0  0  0  0  0  0  0
   -3.5421   45.8065   58.1449 H   0  0  0  0  0  0  0  0  0  0  0  0
   -2.9396   46.7000   59.5620 H   0  0  0  0  0  0  0  0  0  0  0  0
   -4.7659   47.6338   57.4378 H   0  0  0  0  0  0  0  0  0  0  0  0
   -4.3471   48.4805   58.9146 H   0  0  0  0  0  0  0  0  0  0  0  0
   -0.9120   48.6060   56.5860 H   0  0  0  0  0  0  0  0  0  0  0  0
    0.5732   46.4619   56.2614 H   0  0  0  0  0  0  0  0  0  0  0  0
    4.4447   46.5820   49.8587 H   0  0  0  0  0  0  0  0  0  0  0  0
    6.8962   47.1176   53.1604 H   0  0  0  0  0  0  0  0  0  0  0  0
  1  2  1  0
  2  3  2  0
  3  4  1  0
  4  5  2  0
  5  6  1  0
  6  7  1  0
  7  8  1  0
  8  9  2  0
  9 10  1  0
 10 11  2  0
 11 12  1  0
 12 13  2  0
 12 14  1  0
 14 15  1  0
 15 16  2  0
 16 17  1  0
 17 18  2  0
 18 19  1  0
 19 20  1  0
 20 21  1  0
 21 22  1  0
 22 23  1  0
 23 24  2  0
 23 25  1  0
 19 26  2  0
 11 27  1  0
 27 28  2  0
  6 29  2  0
 29  2  1  0
 28  8  1  0
 26 15  1  0
 25 20  1  0
  1 30  1  0
  1 31  1  0
  1 32  1  0
  3 33  1  0
  4 34  1  0
  5 35  1  0
  9 36  1  0
 10 37  1  0
 14 38  1  0
 16 39  1  0
 17 40  1  0
 18 41  1  0
 20 42  1  1
 21 43  1  0
 21 44  1  0
 22 45  1  0
 22 46  1  0
 25 47  1  0
 26 48  1  0
 28 49  1  0
 29 50  1  0
M  END
>  <meeko>  (3) 
{"is_sidechain": [false], "free_energy": -8.926, "intermolecular_energy": -11.645, "internal_energy": -0.745}

$$$$
ligand_10_conformer_3_docked
     RDKit          3D

 50 53  0  0  0  0  0  0  0  0999 V2000
    0.7380   35.6420   47.1340 C   0  0  0  0  0  0  0  0  0  0  0  0
    0.8330   36.9400   46.3880 C   0  0  0  0  0  0  0  0  0  0  0  0
   -0.3170   37.5220   45.8350 C   0  0  0  0  0  0  0  0  0  0  0  0
   -0.2330   38.7450   45.1660 C   0  0  0  0  0  0  0  0  0  0  0  0
    0.9940   39.4060   45.0640 C   0  0  0  0  0  0  0  0  0  0  0  0
    2.1440   38.8580   45.6410 C   0  0  0  0  0  0  0  0  0  0  0  0
    3.3590   39.5480   45.5060 O   0  0  0  0  0  0  0  0  0  0  0  0
    3.9860   40.3010   46.5080 C   0  0  0  0  0  0  0  0  0  0  0  0
    5.0340   41.1930   46.2330 C   0  0  0  0  0  0  0  0  0  0  0  0
    5.6320   41.9120   47.2690 C   0  0  0  0  0  0  0  0  0  0  0  0
    5.1880   41.7240   48.5880 C   0  0  0  0  0  0  0  0  0  0  0  0
    5.7960   42.4680   49.7130 C   0  0  0  0  0  0  0  0  0  0  0  0
    6.8470   42.0260   50.2560 O   0  0  0  0  0  0  0  0  0  0  0  0
    5.2200   43.7090   50.1600 N   0  0  0  0  0  0  0  0  0  0  0  0
    5.5780   44.3690   51.3870 C   0  0  0  0  0  0  0  0  0  0  0  0
    4.9850   43.9550   52.5880 C   0  0  0  0  0  0  0  0  0  0  0  0
    5.3200   44.5750   53.7930 C   0  0  0  0  0  0  0  0  0  0  0  0
    6.2640   45.6030   53.8160 C   0  0  0  0  0  0  0  0  0  0  0  0
    6.8980   46.0090   52.6320 C   0  0  0  0  0  0  0  0  0  0  0  0
    7.9130   47.1320   52.6610 C   0  0  2  0  0  0  0  0  0  0  0  0
    9.2390   46.7310   51.9650 C   0  0  0  0  0  0  0  0  0  0  0  0
   10.3360   46.7250   53.0430 C   0  0  0  0  0  0  0  0  0  0  0  0
    9.6410   47.2350   54.2390 C   0  0  0  0  0  0  0  0  0  0  0  0
   10.2040   47.4400   55.3460 O   0  0  0  0  0  0  0  0  0  0  0  0
    8.2660   47.4620   54.0290 N   0  0  0  0  0  0  0  0  0  0  0  0
    6.5500   45.3850   51.4190 C   0  0  0  0  0  0  0  0  0  0  0  0
    4.1870   40.8310   48.8320 N   0  0  0  0  0  0  0  0  0  0  0  0
    3.5890   40.1240   47.8370 C   0  0  0  0  0  0  0  0  0  0  0  0
    2.0610   37.6140   46.2950 C   0  0  0  0  0  0  0  0  0  0  0  0
    0.7524   35.8391   48.2161 H   0  0  0  0  0  0  0  0  0  0  0  0
   -0.1998   35.1331   46.8665 H   0  0  0  0  0  0  0  0  0  0  0  0
    1.5917   35.0020   46.8665 H   0  0  0  0  0  0  0  0  0  0  0  0
   -1.2880   37.0137   45.9285 H   0  0  0  0  0  0  0  0  0  0  0  0
   -1.1345   39.1889   44.7185 H   0  0  0  0  0  0  0  0  0  0  0  0
    1.0557   40.3636   44.5263 H   0  0  0  0  0  0  0  0  0  0  0  0
    5.3848   41.3257   45.1989 H   0  0  0  0  0  0  0  0  0  0  0  0
    6.4452   42.6208   47.0540 H   0  0  0  0  0  0  0  0  0  0  0  0
    4.5640   44.2070   49.5180 H   0  0  0  0  0  0  0  0  0  0  0  0
    4.2507   43.1360   52.5807 H   0  0  0  0  0  0  0  0  0  0  0  0
    4.8383   44.2523   54.7278 H   0  0  0  0  0  0  0  0  0  0  0  0
    6.5121   46.0972   54.7669 H   0  0  0  0  0  0  0  0  0  0  0  0
    7.4434   47.9796   52.1403 H   0  0  0  0  0  0  0  0  0  0  0  0
    9.1429   45.7297   51.5198 H   0  0  0  0  0  0  0  0  0  0  0  0
    9.4867   47.4389   51.1603 H   0  0  0  0  0  0  0  0  0  0  0  0
   10.7159   45.7067   53.2126 H   0  0  0  0  0  0  0  0  0  0  0  0
   11.2139   47.3274   52.7664 H   0  0  0  0  0  0  0  0  0  0  0  0
    7.6010   47.8150   54.7530 H   0  0  0  0  0  0  0  0  0  0  0  0
    7.0436   45.6954   50.4862 H   0  0  0  0  0  0  0  0  0  0  0  0
    2.7887   39.4090   48.0785 H   0  0  0  0  0  0  0  0  0  0  0  0
    2.9643   37.1672   46.7360 H   0  0  0  0  0  0  0  0  0  0  0  0
  1  2  1  0
  2  3  2  0
  3  4  1  0
  4  5  2  0
  5  6  1  0
  6  7  1  0
  7  8  1  0
  8  9  2  0
  9 10  1  0
 10 11  2  0
 11 12  1  0
 12 13  2  0
 12 14  1  0
 14 15  1  0
 15 16  2  0
 16 17  1  0
 17 18  2  0
 18 19  1  0
 19 20  1  0
 20 21  1  0
 21 22  1  0
 22 23  1  0
 23 24  2  0
 23 25  1  0
 19 26  2  0
 11 27  1  0
 27 28  2  0
  6 29  2  0
 29  2  1  0
 28  8  1  0
 26 15  1  0
 25 20  1  0
  1 30  1  0
  1 31  1  0
  1 32  1  0
  3 33  1  0
  4 34  1  0
  5 35  1  0
  9 36  1  0
 10 37  1  0
 14 38  1  0
 16 39  1  0
 17 40  1  0
 18 41  1  0
 20 42  1  6
 21 43  1  0
 21 44  1  0
 22 45  1  0
 22 46  1  0
 25 47  1  0
 26 48  1  0
 28 49  1  0
 29 50  1  0
M  END
>  <meeko>  (4) 
{"is_sidechain": [false], "free_energy": -8.606, "intermolecular_energy": -11.327, "internal_energy": -0.648}

$$$$
ligand_10_conformer_3_docked
     RDKit          3D

 50 53  0  0  0  0  0  0  0  0999 V2000
    8.7910   47.9050   54.4510 C   0  0  0  0  0  0  0  0  0  0  0  0
    8.9590   47.1120   53.1890 C   0  0  0  0  0  0  0  0  0  0  0  0
   10.2300   46.6620   52.8020 C   0  0  0  0  0  0  0  0  0  0  0  0
   10.3820   45.8980   51.6430 C   0  0  0  0  0  0  0  0  0  0  0  0
    9.2650   45.5580   50.8750 C   0  0  0  0  0  0  0  0  0  0  0  0
    7.9850   45.9670   51.2660 C   0  0  0  0  0  0  0  0  0  0  0  0
    6.8910   45.6160   50.4600 O   0  0  0  0  0  0  0  0  0  0  0  0
    5.6160   45.2650   50.9240 C   0  0  0  0  0  0  0  0  0  0  0  0
    4.5160   46.1320   50.8260 C   0  0  0  0  0  0  0  0  0  0  0  0
    3.2690   45.7380   51.3120 C   0  0  0  0  0  0  0  0  0  0  0  0
    3.1270   44.4770   51.9140 C   0  0  0  0  0  0  0  0  0  0  0  0
    1.8210   44.0250   52.4410 C   0  0  0  0  0  0  0  0  0  0  0  0
    1.7490   42.9400   53.0820 O   0  0  0  0  0  0  0  0  0  0  0  0
    0.6440   44.8350   52.2610 N   0  0  0  0  0  0  0  0  0  0  0  0
   -0.6970   44.3760   52.5080 C   0  0  0  0  0  0  0  0  0  0  0  0
   -1.2990   43.4950   51.5980 C   0  0  0  0  0  0  0  0  0  0  0  0
   -2.5970   43.0290   51.8170 C   0  0  0  0  0  0  0  0  0  0  0  0
   -3.3020   43.4250   52.9550 C   0  0  0  0  0  0  0  0  0  0  0  0
   -2.7060   44.2760   53.8980 C   0  0  0  0  0  0  0  0  0  0  0  0
   -3.4800   44.7100   55.1250 C   0  0  2  0  0  0  0  0  0  0  0  0
   -2.8490   45.9570   55.7950 C   0  0  0  0  0  0  0  0  0  0  0  0
   -2.3560   45.5270   57.1860 C   0  0  0  0  0  0  0  0  0  0  0  0
   -2.8290   44.1350   57.3000 C   0  0  0  0  0  0  0  0  0  0  0  0
   -2.6780   43.4230   58.3270 O   0  0  0  0  0  0  0  0  0  0  0  0
   -3.4630   43.6650   56.1320 N   0  0  0  0  0  0  0  0  0  0  0  0
   -1.4000   44.7480   53.6670 C   0  0  0  0  0  0  0  0  0  0  0  0
    4.2170   43.6660   52.0220 N   0  0  0  0  0  0  0  0  0  0  0  0
    5.4390   44.0280   51.5520 C   0  0  0  0  0  0  0  0  0  0  0  0
    7.8370   46.7560   52.4230 C   0  0  0  0  0  0  0  0  0  0  0  0
    8.9308   47.2452   55.3200 H   0  0  0  0  0  0  0  0  0  0  0  0
    9.5382   48.7118   54.4793 H   0  0  0  0  0  0  0  0  0  0  0  0
    7.7809   48.3395   54.4793 H   0  0  0  0  0  0  0  0  0  0  0  0
   11.1097   46.9117   53.4134 H   0  0  0  0  0  0  0  0  0  0  0  0
   11.3831   45.5631   51.3339 H   0  0  0  0  0  0  0  0  0  0  0  0
    9.3927   44.9651   49.9573 H   0  0  0  0  0  0  0  0  0  0  0  0
    4.6376   47.1235   50.3653 H   0  0  0  0  0  0  0  0  0  0  0  0
    2.4029   46.4104   51.2243 H   0  0  0  0  0  0  0  0  0  0  0  0
    0.7720   45.8420   52.0200 H   0  0  0  0  0  0  0  0  0  0  0  0
   -0.7449   43.1688   50.7055 H   0  0  0  0  0  0  0  0  0  0  0  0
   -3.0652   42.3481   51.0909 H   0  0  0  0  0  0  0  0  0  0  0  0
   -4.3303   43.0679   53.1133 H   0  0  0  0  0  0  0  0  0  0  0  0
   -4.5002   44.9316   54.7785 H   0  0  0  0  0  0  0  0  0  0  0  0
   -2.0042   46.3215   55.1921 H   0  0  0  0  0  0  0  0  0  0  0  0
   -3.5852   46.7703   55.8765 H   0  0  0  0  0  0  0  0  0  0  0  0
   -1.2588   45.5764   57.2475 H   0  0  0  0  0  0  0  0  0  0  0  0
   -2.7283   46.1749   57.9932 H   0  0  0  0  0  0  0  0  0  0  0  0
   -3.8590   42.7060   56.0110 H   0  0  0  0  0  0  0  0  0  0  0  0
   -0.9246   45.4150   54.4013 H   0  0  0  0  0  0  0  0  0  0  0  0
    6.2936   43.3448   51.6659 H   0  0  0  0  0  0  0  0  0  0  0  0
    6.8364   47.0956   52.7287 H   0  0  0  0  0  0  0  0  0  0  0  0
  1  2  1  0
  2  3  2  0
  3  4  1  0
  4  5  2  0
  5  6  1  0
  6  7  1  0
  7  8  1  0
  8  9  2  0
  9 10  1  0
 10 11  2  0
 11 12  1  0
 12 13  2  0
 12 14  1  0
 14 15  1  0
 15 16  2  0
 16 17  1  0
 17 18  2  0
 18 19  1  0
 19 20  1  0
 20 21  1  0
 21 22  1  0
 22 23  1  0
 23 24  2  0
 23 25  1  0
 19 26  2  0
 11 27  1  0
 27 28  2  0
  6 29  2  0
 29  2  1  0
 28  8  1  0
 26 15  1  0
 25 20  1  0
  1 30  1  0
  1 31  1  0
  1 32  1  0
  3 33  1  0
  4 34  1  0
  5 35  1  0
  9 36  1  0
 10 37  1  0
 14 38  1  0
 16 39  1  0
 17 40  1  0
 18 41  1  0
 20 42  1  6
 21 43  1  0
 21 44  1  0
 22 45  1  0
 22 46  1  0
 25 47  1  0
 26 48  1  0
 28 49  1  0
 29 50  1  0
M  END
>  <meeko>  (5) 
{"is_sidechain": [false], "free_energy": -8.59, "intermolecular_energy": -11.05, "internal_energy": -0.905}

$$$$
