ligand_53_conformer_1_docked
     RDKit          3D

 38 40  0  0  0  0  0  0  0  0999 V2000
    1.1110   45.5090   54.7520 N   0  0  0  0  0  0  0  0  0  0  0  0
    2.2560   45.4350   54.6040 C   0  0  0  0  0  0  0  0  0  0  0  0
    3.6810   45.3450   54.4210 C   0  0  0  0  0  0  0  0  0  0  0  0
    4.2420   45.5010   53.1510 C   0  0  0  0  0  0  0  0  0  0  0  0
    5.6390   45.4020   53.0080 C   0  0  0  0  0  0  0  0  0  0  0  0
    6.2900   45.5210   51.7150 N   0  0  0  0  0  0  0  0  0  0  0  0
    7.5970   46.1990   51.6240 C   0  0  0  0  0  0  0  0  0  0  0  0
    7.5430   47.6090   52.2360 C   0  0  0  0  0  0  0  0  0  0  0  0
    8.8540   47.9790   52.9520 C   0  0  1  0  0  0  0  0  0  0  0  0
    8.7370   47.9450   54.4770 C   0  0  0  0  0  0  0  0  0  0  0  0
    9.7880   46.8440   54.5320 C   0  0  2  0  0  0  0  0  0  0  0  0
   10.9550   47.2770   55.1330 F   0  0  0  0  0  0  0  0  0  0  0  0
    9.8910   46.8540   53.0120 C   0  0  0  0  0  0  0  0  0  0  0  0
    5.6330   45.0840   50.4710 C   0  0  0  0  0  0  0  0  0  0  0  0
    5.6510   43.5910   50.3730 C   0  0  0  0  0  0  0  0  0  0  0  0
    6.6120   42.8080   49.7430 C   0  0  0  0  0  0  0  0  0  0  0  0
    6.3030   41.4340   49.7680 C   0  0  0  0  0  0  0  0  0  0  0  0
    5.1310   41.0890   50.3700 N   0  0  0  0  0  0  0  0  0  0  0  0
    4.4720   42.5280   50.8880 S   0  0  0  0  0  0  0  0  0  0  0  0
    6.3890   45.1700   54.1190 N   0  0  0  0  0  0  0  0  0  0  0  0
    5.8270   45.0250   55.3470 C   0  0  0  0  0  0  0  0  0  0  0  0
    4.4800   45.1020   55.4890 N   0  0  0  0  0  0  0  0  0  0  0  0
    3.6029   45.6978   52.2776 H   0  0  0  0  0  0  0  0  0  0  0  0
    8.3474   45.6031   52.1642 H   0  0  0  0  0  0  0  0  0  0  0  0
    7.8641   46.2935   50.5611 H   0  0  0  0  0  0  0  0  0  0  0  0
    7.3595   48.3377   51.4327 H   0  0  0  0  0  0  0  0  0  0  0  0
    6.7337   47.6246   52.9809 H   0  0  0  0  0  0  0  0  0  0  0  0
    9.0889   48.9117   52.4182 H   0  0  0  0  0  0  0  0  0  0  0  0
    9.0394   48.8798   54.9717 H   0  0  0  0  0  0  0  0  0  0  0  0
    7.7575   47.8047   54.9576 H   0  0  0  0  0  0  0  0  0  0  0  0
    9.5884   45.9060   55.0708 H   0  0  0  0  0  0  0  0  0  0  0  0
   10.8833   47.1365   52.6306 H   0  0  0  0  0  0  0  0  0  0  0  0
    9.7432   45.9280   52.4369 H   0  0  0  0  0  0  0  0  0  0  0  0
    4.5907   45.4356   50.4679 H   0  0  0  0  0  0  0  0  0  0  0  0
    6.1749   45.5063   49.6119 H   0  0  0  0  0  0  0  0  0  0  0  0
    7.5185   43.2186   49.2742 H   0  0  0  0  0  0  0  0  0  0  0  0
    6.9716   40.6809   49.3256 H   0  0  0  0  0  0  0  0  0  0  0  0
    6.4636   44.8452   56.2258 H   0  0  0  0  0  0  0  0  0  0  0  0
  1  2  3  0
  2  3  1  0
  3  4  2  0
  4  5  1  0
  5  6  1  0
  6  7  1  0
  7  8  1  0
  8  9  1  0
  9 10  1  0
 10 11  1  0
 11 12  1  0
 11 13  1  0
  6 14  1  0
 14 15  1  0
 15 16  2  0
 16 17  1  0
 17 18  2  0
 18 19  1  0
  5 20  2  0
 20 21  1  0
 21 22  2  0
 22  3  1  0
 13  9  1  0
 19 15  1  0
  4 23  1  0
  7 24  1  0
  7 25  1  0
  8 26  1  0
  8 27  1  0
  9 28  1  1
 10 29  1  0
 10 30  1  0
 11 31  1  1
 13 32  1  0
 13 33  1  0
 14 34  1  0
 14 35  1  0
 16 36  1  0
 17 37  1  0
 21 38  1  0
M  END
>  <meeko>  (1) 
{"is_sidechain": [false], "free_energy": -8.264, "intermolecular_energy": -11.163, "internal_energy": -0.76}

$$$$
ligand_53_conformer_1_docked
     RDKit          3D

 38 40  0  0  0  0  0  0  0  0999 V2000
   10.6960   47.5550   56.1000 N   0  0  0  0  0  0  0  0  0  0  0  0
   10.1770   47.3050   55.0960 C   0  0  0  0  0  0  0  0  0  0  0  0
    9.5330   46.9960   53.8470 C   0  0  0  0  0  0  0  0  0  0  0  0
    8.1390   47.0140   53.7480 C   0  0  0  0  0  0  0  0  0  0  0  0
    7.5420   46.7030   52.5110 C   0  0  0  0  0  0  0  0  0  0  0  0
    6.1000   46.6700   52.3400 N   0  0  0  0  0  0  0  0  0  0  0  0
    5.5190   45.8470   51.2630 C   0  0  0  0  0  0  0  0  0  0  0  0
    5.5300   44.3520   51.6300 C   0  0  0  0  0  0  0  0  0  0  0  0
    5.2850   43.4550   50.4050 C   0  0  1  0  0  0  0  0  0  0  0  0
    6.5720   43.0770   49.6690 C   0  0  0  0  0  0  0  0  0  0  0  0
    6.3120   41.6070   49.9720 C   0  0  2  0  0  0  0  0  0  0  0  0
    6.0390   40.8860   48.8240 F   0  0  0  0  0  0  0  0  0  0  0  0
    5.0430   41.9790   50.7280 C   0  0  0  0  0  0  0  0  0  0  0  0
    5.2030   47.5230   53.1390 C   0  0  0  0  0  0  0  0  0  0  0  0
    4.1520   46.6910   53.8020 C   0  0  0  0  0  0  0  0  0  0  0  0
    4.2920   45.9410   54.9640 C   0  0  0  0  0  0  0  0  0  0  0  0
    3.1310   45.2130   55.2910 C   0  0  0  0  0  0  0  0  0  0  0  0
    2.0810   45.3330   54.4320 N   0  0  0  0  0  0  0  0  0  0  0  0
    2.6100   46.3740   53.2460 S   0  0  0  0  0  0  0  0  0  0  0  0
    8.3510   46.4060   51.4570 N   0  0  0  0  0  0  0  0  0  0  0  0
    9.7040   46.3970   51.5720 C   0  0  0  0  0  0  0  0  0  0  0  0
   10.2860   46.6800   52.7650 N   0  0  0  0  0  0  0  0  0  0  0  0
    7.5191   47.2666   54.6209 H   0  0  0  0  0  0  0  0  0  0  0  0
    4.4804   46.1654   51.0900 H   0  0  0  0  0  0  0  0  0  0  0  0
    6.1260   45.9852   50.3561 H   0  0  0  0  0  0  0  0  0  0  0  0
    6.5089   44.1003   52.0641 H   0  0  0  0  0  0  0  0  0  0  0  0
    4.7172   44.1733   52.3493 H   0  0  0  0  0  0  0  0  0  0  0  0
    4.4967   44.0431   49.9122 H   0  0  0  0  0  0  0  0  0  0  0  0
    6.5651   43.3228   48.5968 H   0  0  0  0  0  0  0  0  0  0  0  0
    7.5295   43.5421   49.9462 H   0  0  0  0  0  0  0  0  0  0  0  0
    7.0852   40.9884   50.4511 H   0  0  0  0  0  0  0  0  0  0  0  0
    4.1218   41.5682   50.2891 H   0  0  0  0  0  0  0  0  0  0  0  0
    4.8984   41.6527   51.7685 H   0  0  0  0  0  0  0  0  0  0  0  0
    5.7898   48.0471   53.9078 H   0  0  0  0  0  0  0  0  0  0  0  0
    4.7165   48.2525   52.4748 H   0  0  0  0  0  0  0  0  0  0  0  0
    5.2129   45.9183   55.5652 H   0  0  0  0  0  0  0  0  0  0  0  0
    3.0756   44.5824   56.1906 H   0  0  0  0  0  0  0  0  0  0  0  0
   10.3285   46.1603   50.6980 H   0  0  0  0  0  0  0  0  0  0  0  0
  1  2  3  0
  2  3  1  0
  3  4  2  0
  4  5  1  0
  5  6  1  0
  6  7  1  0
  7  8  1  0
  8  9  1  0
  9 10  1  0
 10 11  1  0
 11 12  1  0
 11 13  1  0
  6 14  1  0
 14 15  1  0
 15 16  2  0
 16 17  1  0
 17 18  2  0
 18 19  1  0
  5 20  2  0
 20 21  1  0
 21 22  2  0
 22  3  1  0
 13  9  1  0
 19 15  1  0
  4 23  1  0
  7 24  1  0
  7 25  1  0
  8 26  1  0
  8 27  1  0
  9 28  1  6
 10 29  1  0
 10 30  1  0
 11 31  1  1
 13 32  1  0
 13 33  1  0
 14 34  1  0
 14 35  1  0
 16 36  1  0
 17 37  1  0
 21 38  1  0
M  END
>  <meeko>  (2) 
{"is_sidechain": [false], "free_energy": -8.063, "intermolecular_energy": -10.988, "internal_energy": -0.664}

$$$$
ligand_53_conformer_1_docked
     RDKit          3D

 38 40  0  0  0  0  0  0  0  0999 V2000
    3.5750   40.4580   49.9410 N   0  0  0  0  0  0  0  0  0  0  0  0
    4.3600   41.3080   49.9700 C   0  0  0  0  0  0  0  0  0  0  0  0
    5.3380   42.3630   50.0070 C   0  0  0  0  0  0  0  0  0  0  0  0
    5.1660   43.4560   50.8610 C   0  0  0  0  0  0  0  0  0  0  0  0
    6.1400   44.4720   50.8690 C   0  0  0  0  0  0  0  0  0  0  0  0
    6.0140   45.6520   51.7060 N   0  0  0  0  0  0  0  0  0  0  0  0
    7.1660   46.0880   52.5190 C   0  0  0  0  0  0  0  0  0  0  0  0
    7.5950   47.5220   52.1620 C   0  0  0  0  0  0  0  0  0  0  0  0
    8.8570   47.9550   52.9280 C   0  0  1  0  0  0  0  0  0  0  0  0
    8.7000   47.8620   54.4470 C   0  0  0  0  0  0  0  0  0  0  0  0
    9.8220   46.8330   54.4990 C   0  0  2  0  0  0  0  0  0  0  0  0
   10.9390   47.3240   55.1490 F   0  0  0  0  0  0  0  0  0  0  0  0
    9.9660   46.9020   52.9840 C   0  0  0  0  0  0  0  0  0  0  0  0
    4.7350   46.3660   51.8560 C   0  0  0  0  0  0  0  0  0  0  0  0
    4.1220   46.0580   53.1860 C   0  0  0  0  0  0  0  0  0  0  0  0
    3.1110   45.1410   53.4470 C   0  0  0  0  0  0  0  0  0  0  0  0
    2.7070   45.1380   54.7970 C   0  0  0  0  0  0  0  0  0  0  0  0
    3.3370   46.0230   55.6180 N   0  0  0  0  0  0  0  0  0  0  0  0
    4.4230   46.8210   54.6410 S   0  0  0  0  0  0  0  0  0  0  0  0
    7.2180   44.3430   50.0480 N   0  0  0  0  0  0  0  0  0  0  0  0
    7.3700   43.2720   49.2270 C   0  0  0  0  0  0  0  0  0  0  0  0
    6.4270   42.2970   49.2030 N   0  0  0  0  0  0  0  0  0  0  0  0
    4.2844   43.5211   51.5157 H   0  0  0  0  0  0  0  0  0  0  0  0
    6.8874   46.0522   53.5825 H   0  0  0  0  0  0  0  0  0  0  0  0
    8.0099   45.4130   52.3134 H   0  0  0  0  0  0  0  0  0  0  0  0
    7.8002   47.5727   51.0825 H   0  0  0  0  0  0  0  0  0  0  0  0
    6.7770   48.2010   52.4445 H   0  0  0  0  0  0  0  0  0  0  0  0
    9.0424   48.9186   52.4309 H   0  0  0  0  0  0  0  0  0  0  0  0
    8.9238   48.7979   54.9799 H   0  0  0  0  0  0  0  0  0  0  0  0
    7.7194   47.6399   54.8931 H   0  0  0  0  0  0  0  0  0  0  0  0
    9.6728   45.8657   55.0011 H   0  0  0  0  0  0  0  0  0  0  0  0
   10.9468   47.2639   52.6419 H   0  0  0  0  0  0  0  0  0  0  0  0
    9.8979   45.9881   52.3756 H   0  0  0  0  0  0  0  0  0  0  0  0
    4.9127   47.4489   51.7802 H   0  0  0  0  0  0  0  0  0  0  0  0
    4.0479   46.0407   51.0610 H   0  0  0  0  0  0  0  0  0  0  0  0
    2.6720   44.4860   52.6800 H   0  0  0  0  0  0  0  0  0  0  0  0
    1.9256   44.4581   55.1673 H   0  0  0  0  0  0  0  0  0  0  0  0
    8.2575   43.1951   48.5816 H   0  0  0  0  0  0  0  0  0  0  0  0
  1  2  3  0
  2  3  1  0
  3  4  2  0
  4  5  1  0
  5  6  1  0
  6  7  1  0
  7  8  1  0
  8  9  1  0
  9 10  1  0
 10 11  1  0
 11 12  1  0
 11 13  1  0
  6 14  1  0
 14 15  1  0
 15 16  2  0
 16 17  1  0
 17 18  2  0
 18 19  1  0
  5 20  2  0
 20 21  1  0
 21 22  2  0
 22  3  1  0
 13  9  1  0
 19 15  1  0
  4 23  1  0
  7 24  1  0
  7 25  1  0
  8 26  1  0
  8 27  1  0
  9 28  1  1
 10 29  1  0
 10 30  1  0
 11 31  1  6
 13 32  1  0
 13 33  1  0
 14 34  1  0
 14 35  1  0
 16 36  1  0
 17 37  1  0
 21 38  1  0
M  END
>  <meeko>  (3) 
{"is_sidechain": [false], "free_energy": -8.02, "intermolecular_energy": -11.077, "internal_energy": -0.517}

$$$$
ligand_53_conformer_1_docked
     RDKit          3D

 38 40  0  0  0  0  0  0  0  0999 V2000
   -0.7360   45.4220   52.0240 N   0  0  0  0  0  0  0  0  0  0  0  0
    0.3170   45.4740   52.5010 C   0  0  0  0  0  0  0  0  0  0  0  0
    1.6260   45.5410   53.0950 C   0  0  0  0  0  0  0  0  0  0  0  0
    2.7680   45.5200   52.2910 C   0  0  0  0  0  0  0  0  0  0  0  0
    4.0330   45.5840   52.9050 C   0  0  0  0  0  0  0  0  0  0  0  0
    5.2650   45.5340   52.1370 N   0  0  0  0  0  0  0  0  0  0  0  0
    6.5460   45.8350   52.8050 C   0  0  0  0  0  0  0  0  0  0  0  0
    7.4710   46.6660   51.8990 C   0  0  0  0  0  0  0  0  0  0  0  0
    8.5060   47.4660   52.7090 C   0  0  1  0  0  0  0  0  0  0  0  0
    8.4410   47.1850   54.2120 C   0  0  0  0  0  0  0  0  0  0  0  0
    9.8650   46.6470   54.1710 C   0  0  2  0  0  0  0  0  0  0  0  0
   10.7410   47.4580   54.8700 F   0  0  0  0  0  0  0  0  0  0  0  0
    9.9270   46.9000   52.6700 C   0  0  0  0  0  0  0  0  0  0  0  0
    5.2650   45.3020   50.6830 C   0  0  0  0  0  0  0  0  0  0  0  0
    5.5090   43.8560   50.3890 C   0  0  0  0  0  0  0  0  0  0  0  0
    4.7560   42.7760   50.8340 C   0  0  0  0  0  0  0  0  0  0  0  0
    5.2900   41.5330   50.4380 C   0  0  0  0  0  0  0  0  0  0  0  0
    6.4430   41.5750   49.7140 N   0  0  0  0  0  0  0  0  0  0  0  0
    6.7990   43.1940   49.5610 S   0  0  0  0  0  0  0  0  0  0  0  0
    4.0910   45.6740   54.2620 N   0  0  0  0  0  0  0  0  0  0  0  0
    2.9690   45.6970   55.0280 C   0  0  0  0  0  0  0  0  0  0  0  0
    1.7480   45.6200   54.4430 N   0  0  0  0  0  0  0  0  0  0  0  0
    2.6803   45.4546   51.1965 H   0  0  0  0  0  0  0  0  0  0  0  0
    6.3446   46.4013   53.7263 H   0  0  0  0  0  0  0  0  0  0  0  0
    7.0489   44.8837   53.0331 H   0  0  0  0  0  0  0  0  0  0  0  0
    8.0026   45.9869   51.2162 H   0  0  0  0  0  0  0  0  0  0  0  0
    6.8478   47.3822   51.3434 H   0  0  0  0  0  0  0  0  0  0  0  0
    8.3062   48.4701   52.3067 H   0  0  0  0  0  0  0  0  0  0  0  0
    8.3183   48.0850   54.8325 H   0  0  0  0  0  0  0  0  0  0  0  0
    7.6266   46.5753   54.6303 H   0  0  0  0  0  0  0  0  0  0  0  0
   10.0999   45.6526   54.5785 H   0  0  0  0  0  0  0  0  0  0  0  0
   10.6932   47.6294   52.3685 H   0  0  0  0  0  0  0  0  0  0  0  0
   10.1836   46.0849   51.9774 H   0  0  0  0  0  0  0  0  0  0  0  0
    4.2899   45.5973   50.2682 H   0  0  0  0  0  0  0  0  0  0  0  0
    6.0659   45.9008   50.2247 H   0  0  0  0  0  0  0  0  0  0  0  0
    3.8391   42.8803   51.4327 H   0  0  0  0  0  0  0  0  0  0  0  0
    4.8027   40.5820   50.6991 H   0  0  0  0  0  0  0  0  0  0  0  0
    3.0510   45.7780   56.1219 H   0  0  0  0  0  0  0  0  0  0  0  0
  1  2  3  0
  2  3  1  0
  3  4  2  0
  4  5  1  0
  5  6  1  0
  6  7  1  0
  7  8  1  0
  8  9  1  0
  9 10  1  0
 10 11  1  0
 11 12  1  0
 11 13  1  0
  6 14  1  0
 14 15  1  0
 15 16  2  0
 16 17  1  0
 17 18  2  0
 18 19  1  0
  5 20  2  0
 20 21  1  0
 21 22  2  0
 22  3  1  0
 13  9  1  0
 19 15  1  0
  4 23  1  0
  7 24  1  0
  7 25  1  0
  8 26  1  0
  8 27  1  0
  9 28  1  1
 10 29  1  0
 10 30  1  0
 11 31  1  6
 13 32  1  0
 13 33  1  0
 14 34  1  0
 14 35  1  0
 16 36  1  0
 17 37  1  0
 21 38  1  0
M  END
>  <meeko>  (4) 
{"is_sidechain": [false], "free_energy": -7.841, "intermolecular_energy": -10.613, "internal_energy": -0.739}

$$$$
ligand_53_conformer_1_docked
     RDKit          3D

 38 40  0  0  0  0  0  0  0  0999 V2000
    0.5780   46.1210   57.9590 N   0  0  0  0  0  0  0  0  0  0  0  0
    0.8360   45.6530   56.9320 C   0  0  0  0  0  0  0  0  0  0  0  0
    1.1570   45.0700   55.6560 C   0  0  0  0  0  0  0  0  0  0  0  0
    2.4150   45.2720   55.0830 C   0  0  0  0  0  0  0  0  0  0  0  0
    2.6940   44.6900   53.8320 C   0  0  0  0  0  0  0  0  0  0  0  0
    3.9670   44.8830   53.1610 N   0  0  0  0  0  0  0  0  0  0  0  0
    5.1910   45.0570   53.9670 C   0  0  0  0  0  0  0  0  0  0  0  0
    5.9580   46.3270   53.5570 C   0  0  0  0  0  0  0  0  0  0  0  0
    7.4690   46.0690   53.4210 C   0  0  1  0  0  0  0  0  0  0  0  0
    8.0410   46.5360   52.0810 C   0  0  0  0  0  0  0  0  0  0  0  0
    8.9430   47.5220   52.8120 C   0  0  2  0  0  0  0  0  0  0  0  0
   10.2790   47.1820   52.6910 F   0  0  0  0  0  0  0  0  0  0  0  0
    8.3600   47.0800   54.1480 C   0  0  0  0  0  0  0  0  0  0  0  0
    4.0620   45.0210   51.6980 C   0  0  0  0  0  0  0  0  0  0  0  0
    4.7640   43.8390   51.1090 C   0  0  0  0  0  0  0  0  0  0  0  0
    5.9520   43.8500   50.3870 C   0  0  0  0  0  0  0  0  0  0  0  0
    6.3150   42.5740   49.9090 C   0  0  0  0  0  0  0  0  0  0  0  0
    5.4620   41.5550   50.2010 N   0  0  0  0  0  0  0  0  0  0  0  0
    4.2330   42.2570   51.0780 S   0  0  0  0  0  0  0  0  0  0  0  0
    1.7260   43.9430   53.2350 N   0  0  0  0  0  0  0  0  0  0  0  0
    0.5090   43.7550   53.8090 C   0  0  0  0  0  0  0  0  0  0  0  0
    0.2280   44.3260   55.0060 N   0  0  0  0  0  0  0  0  0  0  0  0
    3.1748   45.8758   55.6008 H   0  0  0  0  0  0  0  0  0  0  0  0
    4.9126   45.1341   55.0284 H   0  0  0  0  0  0  0  0  0  0  0  0
    5.8439   44.1883   53.7967 H   0  0  0  0  0  0  0  0  0  0  0  0
    5.5695   46.6800   52.5903 H   0  0  0  0  0  0  0  0  0  0  0  0
    5.8115   47.0814   54.3440 H   0  0  0  0  0  0  0  0  0  0  0  0
    7.4934   45.0089   53.7135 H   0  0  0  0  0  0  0  0  0  0  0  0
    8.5838   45.7555   51.5276 H   0  0  0  0  0  0  0  0  0  0  0  0
    7.3718   46.8815   51.2793 H   0  0  0  0  0  0  0  0  0  0  0  0
    8.9516   48.5861   52.5334 H   0  0  0  0  0  0  0  0  0  0  0  0
    9.0932   46.6244   54.8298 H   0  0  0  0  0  0  0  0  0  0  0  0
    7.9207   47.8172   54.8361 H   0  0  0  0  0  0  0  0  0  0  0  0
    3.0495   45.0901   51.2736 H   0  0  0  0  0  0  0  0  0  0  0  0
    4.6332   45.9307   51.4610 H   0  0  0  0  0  0  0  0  0  0  0  0
    6.5461   44.7582   50.2076 H   0  0  0  0  0  0  0  0  0  0  0  0
    7.2371   42.4114   49.3318 H   0  0  0  0  0  0  0  0  0  0  0  0
   -0.2486   43.1392   53.3022 H   0  0  0  0  0  0  0  0  0  0  0  0
  1  2  3  0
  2  3  1  0
  3  4  2  0
  4  5  1  0
  5  6  1  0
  6  7  1  0
  7  8  1  0
  8  9  1  0
  9 10  1  0
 10 11  1  0
 11 12  1  0
 11 13  1  0
  6 14  1  0
 14 15  1  0
 15 16  2  0
 16 17  1  0
 17 18  2  0
 18 19  1  0
  5 20  2  0
 20 21  1  0
 21 22  2  0
 22  3  1  0
 13  9  1  0
 19 15  1  0
  4 23  1  0
  7 24  1  0
  7 25  1  0
  8 26  1  0
  8 27  1  0
  9 28  1  1
 10 29  1  0
 10 30  1  0
 11 31  1  6
 13 32  1  0
 13 33  1  0
 14 34  1  0
 14 35  1  0
 16 36  1  0
 17 37  1  0
 21 38  1  0
M  END
>  <meeko>  (5) 
{"is_sidechain": [false], "free_energy": -7.471, "intermolecular_energy": -9.92, "internal_energy": -0.932}

$$$$
