ligand_51_conformer_4_docked
     RDKit          3D

 40 43  0  0  0  0  0  0  0  0999 V2000
    5.2550   44.8120   54.8100 O   0  0  0  0  0  0  0  0  0  0  0  0
    5.1260   45.5190   53.7740 C   0  0  0  0  0  0  0  0  0  0  0  0
    6.2190   46.3340   53.3210 N   0  0  0  0  0  0  0  0  0  0  0  0
    7.4940   46.3950   54.0470 C   0  0  2  0  0  0  0  0  0  0  0  0
    7.9360   47.8290   54.3320 C   0  0  0  0  0  0  0  0  0  0  0  0
    9.4490   47.7450   54.4870 C   0  0  0  0  0  0  0  0  0  0  0  0
    9.9030   46.5680   53.6170 C   0  0  2  0  0  0  0  0  0  0  0  0
   10.0910   46.9180   52.1410 C   0  0  0  0  0  0  0  0  0  0  0  0
    8.8230   46.1490   51.7990 C   0  0  0  0  0  0  0  0  0  0  0  0
    8.6590   45.7560   53.2740 C   0  0  2  0  0  0  0  0  0  0  0  0
    3.8580   45.4780   53.0190 C   0  0  0  0  0  0  0  0  0  0  0  0
    2.7540   46.2830   53.2280 C   0  0  0  0  0  0  0  0  0  0  0  0
    1.8580   46.0370   52.2570 N   0  0  0  0  0  0  0  0  0  0  0  0
    2.3260   45.1130   51.4350 N   0  0  0  0  0  0  0  0  0  0  0  0
    3.5460   44.7470   51.8760 C   0  0  0  0  0  0  0  0  0  0  0  0
    4.3500   43.6920   51.2250 C   0  0  0  0  0  0  0  0  0  0  0  0
    3.9160   42.3550   51.2130 C   0  0  0  0  0  0  0  0  0  0  0  0
    4.6750   41.3720   50.5690 C   0  0  0  0  0  0  0  0  0  0  0  0
    5.8640   41.7190   49.9210 C   0  0  0  0  0  0  0  0  0  0  0  0
    6.2910   43.0490   49.9070 C   0  0  0  0  0  0  0  0  0  0  0  0
    7.4390   43.3860   49.2700 F   0  0  0  0  0  0  0  0  0  0  0  0
    5.5340   44.0350   50.5500 C   0  0  0  0  0  0  0  0  0  0  0  0
    6.1200   46.8360   52.4120 H   0  0  0  0  0  0  0  0  0  0  0  0
    7.2889   45.8430   54.9761 H   0  0  0  0  0  0  0  0  0  0  0  0
    7.6681   48.4908   53.4952 H   0  0  0  0  0  0  0  0  0  0  0  0
    7.4489   48.2441   55.2267 H   0  0  0  0  0  0  0  0  0  0  0  0
    9.9200   48.6776   54.1428 H   0  0  0  0  0  0  0  0  0  0  0  0
    9.7369   47.6006   55.5388 H   0  0  0  0  0  0  0  0  0  0  0  0
   10.7681   46.1618   54.1617 H   0  0  0  0  0  0  0  0  0  0  0  0
   10.0357   47.9950   51.9240 H   0  0  0  0  0  0  0  0  0  0  0  0
   11.0374   46.6878   51.6298 H   0  0  0  0  0  0  0  0  0  0  0  0
    8.0087   46.7774   51.4091 H   0  0  0  0  0  0  0  0  0  0  0  0
    8.8361   45.3761   51.0164 H   0  0  0  0  0  0  0  0  0  0  0  0
    8.5124   44.6856   53.4810 H   0  0  0  0  0  0  0  0  0  0  0  0
    2.6298   47.0032   54.0501 H   0  0  0  0  0  0  0  0  0  0  0  0
    0.9320   46.5070   52.1460 H   0  0  0  0  0  0  0  0  0  0  0  0
    2.9751   42.0804   51.7124 H   0  0  0  0  0  0  0  0  0  0  0  0
    4.3360   40.3255   50.5725 H   0  0  0  0  0  0  0  0  0  0  0  0
    6.4640   40.9440   49.4216 H   0  0  0  0  0  0  0  0  0  0  0  0
    5.8672   45.0831   50.5270 H   0  0  0  0  0  0  0  0  0  0  0  0
  1  2  2  0
  2  3  1  0
  3  4  1  0
  4  5  1  0
  5  6  1  0
  6  7  1  0
  7  8  1  0
  8  9  1  0
  9 10  1  0
  2 11  1  0
 11 12  2  0
 12 13  1  0
 13 14  1  0
 14 15  2  0
 15 16  1  0
 16 17  2  0
 17 18  1  0
 18 19  2  0
 19 20  1  0
 20 21  1  0
 20 22  2  0
 10  4  1  0
 15 11  1  0
 22 16  1  0
 10  7  1  0
  3 23  1  0
  4 24  1  1
  5 25  1  0
  5 26  1  0
  6 27  1  0
  6 28  1  0
  7 29  1  1
  8 30  1  0
  8 31  1  0
  9 32  1  0
  9 33  1  0
 10 34  1  6
 12 35  1  0
 13 36  1  0
 17 37  1  0
 18 38  1  0
 19 39  1  0
 22 40  1  0
M  END
>  <meeko>  (1) 
{"is_sidechain": [false], "free_energy": -9.131, "intermolecular_energy": -10.733, "internal_energy": -0.843}

$$$$
ligand_51_conformer_4_docked
     RDKit          3D

 40 43  0  0  0  0  0  0  0  0999 V2000
    4.2120   46.2220   50.7250 O   0  0  0  0  0  0  0  0  0  0  0  0
    4.6370   45.7080   51.7950 C   0  0  0  0  0  0  0  0  0  0  0  0
    5.1360   44.3610   51.7950 N   0  0  0  0  0  0  0  0  0  0  0  0
    5.1480   43.5380   50.5790 C   0  0  2  0  0  0  0  0  0  0  0  0
    5.5240   42.0850   50.8600 C   0  0  0  0  0  0  0  0  0  0  0  0
    6.0830   41.5660   49.5420 C   0  0  0  0  0  0  0  0  0  0  0  0
    6.6890   42.7790   48.8280 C   0  0  2  0  0  0  0  0  0  0  0  0
    8.1100   43.1220   49.2760 C   0  0  0  0  0  0  0  0  0  0  0  0
    7.5810   44.3390   50.0190 C   0  0  0  0  0  0  0  0  0  0  0  0
    6.1600   44.0250   49.5300 C   0  0  2  0  0  0  0  0  0  0  0  0
    4.6420   46.5090   53.0350 C   0  0  0  0  0  0  0  0  0  0  0  0
    3.5500   46.7850   53.8360 C   0  0  0  0  0  0  0  0  0  0  0  0
    3.9810   47.4230   54.9380 N   0  0  0  0  0  0  0  0  0  0  0  0
    5.2940   47.5750   54.8870 N   0  0  0  0  0  0  0  0  0  0  0  0
    5.7280   47.0300   53.7330 C   0  0  0  0  0  0  0  0  0  0  0  0
    7.1450   47.0610   53.3170 C   0  0  0  0  0  0  0  0  0  0  0  0
    7.5010   47.2880   51.9760 C   0  0  0  0  0  0  0  0  0  0  0  0
    8.8480   47.3400   51.6020 C   0  0  0  0  0  0  0  0  0  0  0  0
    9.8490   47.1810   52.5650 C   0  0  0  0  0  0  0  0  0  0  0  0
    9.5040   46.9780   53.9040 C   0  0  0  0  0  0  0  0  0  0  0  0
   10.4760   46.8330   54.8390 F   0  0  0  0  0  0  0  0  0  0  0  0
    8.1580   46.9250   54.2810 C   0  0  0  0  0  0  0  0  0  0  0  0
    5.5660   43.9910   52.6700 H   0  0  0  0  0  0  0  0  0  0  0  0
    4.1186   43.6232   50.2006 H   0  0  0  0  0  0  0  0  0  0  0  0
    6.2845   42.0279   51.6527 H   0  0  0  0  0  0  0  0  0  0  0  0
    4.6644   41.4935   51.2081 H   0  0  0  0  0  0  0  0  0  0  0  0
    6.8572   40.8071   49.7285 H   0  0  0  0  0  0  0  0  0  0  0  0
    5.2992   41.0923   48.9327 H   0  0  0  0  0  0  0  0  0  0  0  0
    6.5255   42.5606   47.7624 H   0  0  0  0  0  0  0  0  0  0  0  0
    8.5712   42.3641   49.9263 H   0  0  0  0  0  0  0  0  0  0  0  0
    8.9169   43.2284   48.5361 H   0  0  0  0  0  0  0  0  0  0  0  0
    7.7016   44.2852   51.1110 H   0  0  0  0  0  0  0  0  0  0  0  0
    8.0219   45.3315   49.8441 H   0  0  0  0  0  0  0  0  0  0  0  0
    5.6146   44.8507   49.0496 H   0  0  0  0  0  0  0  0  0  0  0  0
    2.5050   46.5264   53.6100 H   0  0  0  0  0  0  0  0  0  0  0  0
    3.3830   47.7460   55.7310 H   0  0  0  0  0  0  0  0  0  0  0  0
    6.7166   47.4254   51.2172 H   0  0  0  0  0  0  0  0  0  0  0  0
    9.1199   47.5062   50.5492 H   0  0  0  0  0  0  0  0  0  0  0  0
   10.9078   47.2157   52.2688 H   0  0  0  0  0  0  0  0  0  0  0  0
    7.8912   46.7761   55.3377 H   0  0  0  0  0  0  0  0  0  0  0  0
  1  2  2  0
  2  3  1  0
  3  4  1  0
  4  5  1  0
  5  6  1  0
  6  7  1  0
  7  8  1  0
  8  9  1  0
  9 10  1  0
  2 11  1  0
 11 12  2  0
 12 13  1  0
 13 14  1  0
 14 15  2  0
 15 16  1  0
 16 17  2  0
 17 18  1  0
 18 19  2  0
 19 20  1  0
 20 21  1  0
 20 22  2  0
 10  4  1  0
 15 11  1  0
 22 16  1  0
 10  7  1  0
  3 23  1  0
  4 24  1  6
  5 25  1  0
  5 26  1  0
  6 27  1  0
  6 28  1  0
  7 29  1  6
  8 30  1  0
  8 31  1  0
  9 32  1  0
  9 33  1  0
 10 34  1  6
 12 35  1  0
 13 36  1  0
 17 37  1  0
 18 38  1  0
 19 39  1  0
 22 40  1  0
M  END
>  <meeko>  (2) 
{"is_sidechain": [false], "free_energy": -9.073, "intermolecular_energy": -10.86, "internal_energy": -0.648}

$$$$
ligand_51_conformer_4_docked
     RDKit          3D

 40 43  0  0  0  0  0  0  0  0999 V2000
    4.0480   46.4050   51.2560 O   0  0  0  0  0  0  0  0  0  0  0  0
    4.5110   45.5740   52.0850 C   0  0  0  0  0  0  0  0  0  0  0  0
    5.8780   45.6740   52.5130 N   0  0  0  0  0  0  0  0  0  0  0  0
    6.7810   46.7090   51.9940 C   0  0  2  0  0  0  0  0  0  0  0  0
    7.9950   46.1220   51.2770 C   0  0  0  0  0  0  0  0  0  0  0  0
    9.0620   47.2050   51.3700 C   0  0  0  0  0  0  0  0  0  0  0  0
    8.7680   47.9850   52.6560 C   0  0  2  0  0  0  0  0  0  0  0  0
    9.3370   47.3410   53.9210 C   0  0  0  0  0  0  0  0  0  0  0  0
    7.9350   46.9270   54.3390 C   0  0  0  0  0  0  0  0  0  0  0  0
    7.3560   47.6160   53.0950 C   0  0  2  0  0  0  0  0  0  0  0  0
    3.6300   44.5220   52.6290 C   0  0  0  0  0  0  0  0  0  0  0  0
    2.7530   44.6550   53.6890 C   0  0  0  0  0  0  0  0  0  0  0  0
    2.0350   43.5240   53.7930 N   0  0  0  0  0  0  0  0  0  0  0  0
    2.4070   42.6670   52.8560 N   0  0  0  0  0  0  0  0  0  0  0  0
    3.3840   43.2460   52.1310 C   0  0  0  0  0  0  0  0  0  0  0  0
    4.0750   42.5540   51.0220 C   0  0  0  0  0  0  0  0  0  0  0  0
    5.4030   42.8700   50.6880 C   0  0  0  0  0  0  0  0  0  0  0  0
    6.0510   42.1890   49.6530 C   0  0  0  0  0  0  0  0  0  0  0  0
    5.3850   41.1780   48.9540 C   0  0  0  0  0  0  0  0  0  0  0  0
    4.0720   40.8420   49.2950 C   0  0  0  0  0  0  0  0  0  0  0  0
    3.4290   39.8550   48.6230 F   0  0  0  0  0  0  0  0  0  0  0  0
    3.4200   41.5210   50.3300 C   0  0  0  0  0  0  0  0  0  0  0  0
    6.2100   45.0340   53.2670 H   0  0  0  0  0  0  0  0  0  0  0  0
    6.1445   47.2831   51.3046 H   0  0  0  0  0  0  0  0  0  0  0  0
    8.3324   45.2016   51.7760 H   0  0  0  0  0  0  0  0  0  0  0  0
    7.7703   45.8483   50.2355 H   0  0  0  0  0  0  0  0  0  0  0  0
   10.0628   46.7511   51.4196 H   0  0  0  0  0  0  0  0  0  0  0  0
    9.0433   47.8630   50.4887 H   0  0  0  0  0  0  0  0  0  0  0  0
    9.0851   49.0102   52.4145 H   0  0  0  0  0  0  0  0  0  0  0  0
   10.0162   46.4973   53.7291 H   0  0  0  0  0  0  0  0  0  0  0  0
    9.9734   47.9224   54.6044 H   0  0  0  0  0  0  0  0  0  0  0  0
    7.7772   45.8386   54.3631 H   0  0  0  0  0  0  0  0  0  0  0  0
    7.5567   47.1798   55.3405 H   0  0  0  0  0  0  0  0  0  0  0  0
    6.5308   48.3228   53.2669 H   0  0  0  0  0  0  0  0  0  0  0  0
    2.6587   45.5380   54.3381 H   0  0  0  0  0  0  0  0  0  0  0  0
    1.2840   43.3380   54.4940 H   0  0  0  0  0  0  0  0  0  0  0  0
    5.9350   43.6566   51.2433 H   0  0  0  0  0  0  0  0  0  0  0  0
    7.0865   42.4492   49.3883 H   0  0  0  0  0  0  0  0  0  0  0  0
    5.8941   40.6472   48.1360 H   0  0  0  0  0  0  0  0  0  0  0  0
    2.3908   41.2452   50.6032 H   0  0  0  0  0  0  0  0  0  0  0  0
  1  2  2  0
  2  3  1  0
  3  4  1  0
  4  5  1  0
  5  6  1  0
  6  7  1  0
  7  8  1  0
  8  9  1  0
  9 10  1  0
  2 11  1  0
 11 12  2  0
 12 13  1  0
 13 14  1  0
 14 15  2  0
 15 16  1  0
 16 17  2  0
 17 18  1  0
 18 19  2  0
 19 20  1  0
 20 21  1  0
 20 22  2  0
 10  4  1  0
 15 11  1  0
 22 16  1  0
 10  7  1  0
  3 23  1  0
  4 24  1  6
  5 25  1  0
  5 26  1  0
  6 27  1  0
  6 28  1  0
  7 29  1  6
  8 30  1  0
  8 31  1  0
  9 32  1  0
  9 33  1  0
 10 34  1  1
 12 35  1  0
 13 36  1  0
 17 37  1  0
 18 38  1  0
 19 39  1  0
 22 40  1  0
M  END
>  <meeko>  (3) 
{"is_sidechain": [false], "free_energy": -8.947, "intermolecular_energy": -11.005, "internal_energy": -0.354}

$$$$
ligand_51_conformer_4_docked
     RDKit          3D

 40 43  0  0  0  0  0  0  0  0999 V2000
    7.6640   44.1630   49.3990 O   0  0  0  0  0  0  0  0  0  0  0  0
    6.8190   44.1790   50.3350 C   0  0  0  0  0  0  0  0  0  0  0  0
    6.8990   45.1870   51.3550 N   0  0  0  0  0  0  0  0  0  0  0  0
    7.9610   46.2010   51.3630 C   0  0  2  0  0  0  0  0  0  0  0  0
    9.3230   45.6200   51.7320 C   0  0  0  0  0  0  0  0  0  0  0  0
   10.1110   46.7990   52.2890 C   0  0  0  0  0  0  0  0  0  0  0  0
    9.0780   47.7520   52.9000 C   0  0  2  0  0  0  0  0  0  0  0  0
    8.6560   47.3850   54.3230 C   0  0  0  0  0  0  0  0  0  0  0  0
    7.3060   46.9170   53.8000 C   0  0  0  0  0  0  0  0  0  0  0  0
    7.7100   47.3300   52.3770 C   0  0  2  0  0  0  0  0  0  0  0  0
    5.7370   43.1750   50.3560 C   0  0  0  0  0  0  0  0  0  0  0  0
    5.7720   41.9210   49.7780 C   0  0  0  0  0  0  0  0  0  0  0  0
    4.6570   41.2580   50.1290 N   0  0  0  0  0  0  0  0  0  0  0  0
    3.9040   42.0220   50.9030 N   0  0  0  0  0  0  0  0  0  0  0  0
    4.5340   43.2030   51.0570 C   0  0  0  0  0  0  0  0  0  0  0  0
    3.9560   44.3250   51.8250 C   0  0  0  0  0  0  0  0  0  0  0  0
    3.3220   45.3980   51.1740 C   0  0  0  0  0  0  0  0  0  0  0  0
    2.7570   46.4390   51.9170 C   0  0  0  0  0  0  0  0  0  0  0  0
    2.8070   46.4110   53.3140 C   0  0  0  0  0  0  0  0  0  0  0  0
    3.4150   45.3380   53.9700 C   0  0  0  0  0  0  0  0  0  0  0  0
    3.4550   45.3060   55.3250 F   0  0  0  0  0  0  0  0  0  0  0  0
    3.9810   44.2940   53.2300 C   0  0  0  0  0  0  0  0  0  0  0  0
    6.1370   45.2360   52.0650 H   0  0  0  0  0  0  0  0  0  0  0  0
    7.9540   46.5887   50.3336 H   0  0  0  0  0  0  0  0  0  0  0  0
    9.2152   44.8322   52.4921 H   0  0  0  0  0  0  0  0  0  0  0  0
    9.8240   45.1560   50.8696 H   0  0  0  0  0  0  0  0  0  0  0  0
   10.8167   46.4561   53.0600 H   0  0  0  0  0  0  0  0  0  0  0  0
   10.6995   47.2954   51.5033 H   0  0  0  0  0  0  0  0  0  0  0  0
    9.5149   48.7479   52.7348 H   0  0  0  0  0  0  0  0  0  0  0  0
    9.2616   46.5884   54.7799 H   0  0  0  0  0  0  0  0  0  0  0  0
    8.7131   48.1295   55.1308 H   0  0  0  0  0  0  0  0  0  0  0  0
    7.1278   45.8382   53.9204 H   0  0  0  0  0  0  0  0  0  0  0  0
    6.3752   47.2977   54.2458 H   0  0  0  0  0  0  0  0  0  0  0  0
    7.0020   47.9744   51.8352 H   0  0  0  0  0  0  0  0  0  0  0  0
    6.5771   41.5307   49.1381 H   0  0  0  0  0  0  0  0  0  0  0  0
    4.4130   40.2810   49.8530 H   0  0  0  0  0  0  0  0  0  0  0  0
    3.2703   45.4185   50.0754 H   0  0  0  0  0  0  0  0  0  0  0  0
    2.2724   47.2814   51.4016 H   0  0  0  0  0  0  0  0  0  0  0  0
    2.3675   47.2340   53.8966 H   0  0  0  0  0  0  0  0  0  0  0  0
    4.4479   43.4448   53.7504 H   0  0  0  0  0  0  0  0  0  0  0  0
  1  2  2  0
  2  3  1  0
  3  4  1  0
  4  5  1  0
  5  6  1  0
  6  7  1  0
  7  8  1  0
  8  9  1  0
  9 10  1  0
  2 11  1  0
 11 12  2  0
 12 13  1  0
 13 14  1  0
 14 15  2  0
 15 16  1  0
 16 17  2  0
 17 18  1  0
 18 19  2  0
 19 20  1  0
 20 21  1  0
 20 22  2  0
 10  4  1  0
 15 11  1  0
 22 16  1  0
 10  7  1  0
  3 23  1  0
  4 24  1  6
  5 25  1  0
  5 26  1  0
  6 27  1  0
  6 28  1  0
  7 29  1  1
  8 30  1  0
  8 31  1  0
  9 32  1  0
  9 33  1  0
 10 34  1  6
 12 35  1  0
 13 36  1  0
 17 37  1  0
 18 38  1  0
 19 39  1  0
 22 40  1  0
M  END
>  <meeko>  (4) 
{"is_sidechain": [false], "free_energy": -8.847, "intermolecular_energy": -10.723, "internal_energy": -0.519}

$$$$
ligand_51_conformer_4_docked
     RDKit          3D

 40 43  0  0  0  0  0  0  0  0999 V2000
    4.0080   47.4240   52.6250 O   0  0  0  0  0  0  0  0  0  0  0  0
    4.4690   46.5040   53.3540 C   0  0  0  0  0  0  0  0  0  0  0  0
    5.8580   46.1490   53.2690 N   0  0  0  0  0  0  0  0  0  0  0  0
    6.7720   46.8110   52.3290 C   0  0  2  0  0  0  0  0  0  0  0  0
    7.5160   45.8180   51.4380 C   0  0  0  0  0  0  0  0  0  0  0  0
    8.7860   46.5470   51.0200 C   0  0  0  0  0  0  0  0  0  0  0  0
    9.1140   47.5200   52.1570 C   0  0  2  0  0  0  0  0  0  0  0  0
    9.8810   46.8880   53.3200 C   0  0  0  0  0  0  0  0  0  0  0  0
    8.6270   46.9500   54.1790 C   0  0  0  0  0  0  0  0  0  0  0  0
    7.8690   47.6300   53.0300 C   0  0  2  0  0  0  0  0  0  0  0  0
    3.5780   45.8200   54.3130 C   0  0  0  0  0  0  0  0  0  0  0  0
    3.3000   46.2230   55.6050 C   0  0  0  0  0  0  0  0  0  0  0  0
    2.3460   45.4210   56.1060 N   0  0  0  0  0  0  0  0  0  0  0  0
    1.9960   44.5190   55.2040 N   0  0  0  0  0  0  0  0  0  0  0  0
    2.7350   44.7330   54.0970 C   0  0  0  0  0  0  0  0  0  0  0  0
    2.6450   43.8770   52.8960 C   0  0  0  0  0  0  0  0  0  0  0  0
    1.5200   43.9270   52.0550 C   0  0  0  0  0  0  0  0  0  0  0  0
    1.4610   43.1300   50.9070 C   0  0  0  0  0  0  0  0  0  0  0  0
    2.5290   42.2890   50.5820 C   0  0  0  0  0  0  0  0  0  0  0  0
    3.6620   42.2510   51.4000 C   0  0  0  0  0  0  0  0  0  0  0  0
    4.7020   41.4420   51.0790 F   0  0  0  0  0  0  0  0  0  0  0  0
    3.7240   43.0470   52.5480 C   0  0  0  0  0  0  0  0  0  0  0  0
    6.2350   45.4510   53.9460 H   0  0  0  0  0  0  0  0  0  0  0  0
    6.1090   47.4628   51.7412 H   0  0  0  0  0  0  0  0  0  0  0  0
    7.7606   44.9030   51.9975 H   0  0  0  0  0  0  0  0  0  0  0  0
    6.9135   45.5037   50.5730 H   0  0  0  0  0  0  0  0  0  0  0  0
    9.6091   45.8305   50.8819 H   0  0  0  0  0  0  0  0  0  0  0  0
    8.6485   47.0770   50.0659 H   0  0  0  0  0  0  0  0  0  0  0  0
    9.5770   48.3737   51.6404 H   0  0  0  0  0  0  0  0  0  0  0  0
   10.2387   45.8671   53.1203 H   0  0  0  0  0  0  0  0  0  0  0  0
   10.8219   47.3339   53.6747 H   0  0  0  0  0  0  0  0  0  0  0  0
    8.2263   45.9647   54.4595 H   0  0  0  0  0  0  0  0  0  0  0  0
    8.6587   47.4148   55.1755 H   0  0  0  0  0  0  0  0  0  0  0  0
    7.3384   48.5609   53.2788 H   0  0  0  0  0  0  0  0  0  0  0  0
    3.7792   47.0598   56.1343 H   0  0  0  0  0  0  0  0  0  0  0  0
    1.9230   45.4930   57.0580 H   0  0  0  0  0  0  0  0  0  0  0  0
    0.6821   44.5960   52.3007 H   0  0  0  0  0  0  0  0  0  0  0  0
    0.5728   43.1652   50.2591 H   0  0  0  0  0  0  0  0  0  0  0  0
    2.4780   41.6573   49.6829 H   0  0  0  0  0  0  0  0  0  0  0  0
    4.6225   43.0233   53.1822 H   0  0  0  0  0  0  0  0  0  0  0  0
  1  2  2  0
  2  3  1  0
  3  4  1  0
  4  5  1  0
  5  6  1  0
  6  7  1  0
  7  8  1  0
  8  9  1  0
  9 10  1  0
  2 11  1  0
 11 12  2  0
 12 13  1  0
 13 14  1  0
 14 15  2  0
 15 16  1  0
 16 17  2  0
 17 18  1  0
 18 19  2  0
 19 20  1  0
 20 21  1  0
 20 22  2  0
 10  4  1  0
 15 11  1  0
 22 16  1  0
 10  7  1  0
  3 23  1  0
  4 24  1  6
  5 25  1  0
  5 26  1  0
  6 27  1  0
  6 28  1  0
  7 29  1  6
  8 30  1  0
  8 31  1  0
  9 32  1  0
  9 33  1  0
 10 34  1  1
 12 35  1  0
 13 36  1  0
 17 37  1  0
 18 38  1  0
 19 39  1  0
 22 40  1  0
M  END
>  <meeko>  (5) 
{"is_sidechain": [false], "free_energy": -8.537, "intermolecular_energy": -10.162, "internal_energy": -0.716}

$$$$
