ligand_90_conformer_4_docked
     RDKit          3D

 47 49  0  0  0  0  0  0  0  0999 V2000
    1.6720   43.1310   51.0040 C   0  0  0  0  0  0  0  0  0  0  0  0
    3.0120   43.4190   51.5500 N   0  0  0  0  0  0  0  0  0  0  0  0
    3.9530   42.3830   51.0890 C   0  0  0  0  0  0  0  0  0  0  0  0
    3.0080   43.4620   53.0320 C   0  0  0  0  0  0  0  0  0  0  0  0
    2.6510   44.8670   53.5840 C   0  0  1  0  0  0  0  0  0  0  0  0
    1.4750   44.8760   54.5650 C   0  0  0  0  0  0  0  0  0  0  0  0
    1.6960   45.3090   55.8890 C   0  0  0  0  0  0  0  0  0  0  0  0
    0.6550   45.3200   56.8210 C   0  0  0  0  0  0  0  0  0  0  0  0
   -0.6230   44.9050   56.4490 C   0  0  0  0  0  0  0  0  0  0  0  0
   -0.8640   44.4820   55.1410 C   0  0  0  0  0  0  0  0  0  0  0  0
    0.1720   44.4690   54.2030 C   0  0  0  0  0  0  0  0  0  0  0  0
    3.8650   45.5870   54.0650 N   0  0  0  0  0  0  0  0  0  0  0  0
    4.9730   44.6700   54.3700 C   0  0  0  0  0  0  0  0  0  0  0  0
    4.4530   46.8850   53.0390 S   0  0  0  0  0  0  0  0  0  0  0  0
    4.7440   48.1160   53.8540 O   0  0  0  0  0  0  0  0  0  0  0  0
    3.3950   47.2400   52.0300 O   0  0  0  0  0  0  0  0  0  0  0  0
    5.8860   46.4030   52.1400 C   0  0  0  0  0  0  0  0  0  0  0  0
    5.8260   45.7050   50.9320 C   0  0  0  0  0  0  0  0  0  0  0  0
    7.3970   45.4180   50.3840 S   0  0  0  0  0  0  0  0  0  0  0  0
    8.1570   46.1620   51.6820 C   0  0  0  0  0  0  0  0  0  0  0  0
    9.5230   46.3130   51.9070 C   0  0  0  0  0  0  0  0  0  0  0  0
    9.9330   46.9810   53.0710 C   0  0  0  0  0  0  0  0  0  0  0  0
    8.9790   47.4760   53.9790 C   0  0  0  0  0  0  0  0  0  0  0  0
    7.6060   47.3110   53.7310 C   0  0  0  0  0  0  0  0  0  0  0  0
    7.2030   46.6480   52.5640 C   0  0  0  0  0  0  0  0  0  0  0  0
    0.9637   42.9788   51.8318 H   0  0  0  0  0  0  0  0  0  0  0  0
    1.3379   43.9778   50.3866 H   0  0  0  0  0  0  0  0  0  0  0  0
    1.7153   42.2217   50.3866 H   0  0  0  0  0  0  0  0  0  0  0  0
    4.4053   41.8850   51.9593 H   0  0  0  0  0  0  0  0  0  0  0  0
    3.4132   41.6414   50.4818 H   0  0  0  0  0  0  0  0  0  0  0  0
    4.7429   42.8492   50.4818 H   0  0  0  0  0  0  0  0  0  0  0  0
    2.2679   42.7382   53.4040 H   0  0  0  0  0  0  0  0  0  0  0  0
    4.0231   43.2153   53.3765 H   0  0  0  0  0  0  0  0  0  0  0  0
    2.2646   45.4500   52.7350 H   0  0  0  0  0  0  0  0  0  0  0  0
    2.6998   45.6420   56.1915 H   0  0  0  0  0  0  0  0  0  0  0  0
    0.8443   45.6570   57.8509 H   0  0  0  0  0  0  0  0  0  0  0  0
   -1.4402   44.9110   57.1853 H   0  0  0  0  0  0  0  0  0  0  0  0
   -1.8732   44.1576   54.8472 H   0  0  0  0  0  0  0  0  0  0  0  0
   -0.0294   44.1387   53.1733 H   0  0  0  0  0  0  0  0  0  0  0  0
    5.0836   44.5785   55.4606 H   0  0  0  0  0  0  0  0  0  0  0  0
    4.7596   43.6808   53.9388 H   0  0  0  0  0  0  0  0  0  0  0  0
    5.9048   45.0646   53.9388 H   0  0  0  0  0  0  0  0  0  0  0  0
    4.9039   45.3925   50.4200 H   0  0  0  0  0  0  0  0  0  0  0  0
   10.2604   45.9194   51.1919 H   0  0  0  0  0  0  0  0  0  0  0  0
   11.0053   47.1183   53.2745 H   0  0  0  0  0  0  0  0  0  0  0  0
    9.3106   47.9960   54.8898 H   0  0  0  0  0  0  0  0  0  0  0  0
    6.8595   47.6960   54.4413 H   0  0  0  0  0  0  0  0  0  0  0  0
  1  2  1  0
  2  3  1  0
  2  4  1  0
  4  5  1  0
  5  6  1  0
  6  7  2  0
  7  8  1  0
  8  9  2  0
  9 10  1  0
 10 11  2  0
  5 12  1  0
 12 13  1  0
 12 14  1  0
 14 15  2  0
 14 16  2  0
 14 17  1  0
 17 18  2  0
 18 19  1  0
 19 20  1  0
 20 21  2  0
 21 22  1  0
 22 23  2  0
 23 24  1  0
 24 25  2  0
 11  6  1  0
 25 17  1  0
 25 20  1  0
  1 26  1  0
  1 27  1  0
  1 28  1  0
  3 29  1  0
  3 30  1  0
  3 31  1  0
  4 32  1  0
  4 33  1  0
  5 34  1  6
  7 35  1  0
  8 36  1  0
  9 37  1  0
 10 38  1  0
 11 39  1  0
 13 40  1  0
 13 41  1  0
 13 42  1  0
 18 43  1  0
 21 44  1  0
 22 45  1  0
 23 46  1  0
 24 47  1  0
M  END
>  <meeko>  (1) 
{"is_sidechain": [false], "free_energy": -8.621, "intermolecular_energy": -11.645, "internal_energy": -0.664}

$$$$
ligand_90_conformer_4_docked
     RDKit          3D

 47 49  0  0  0  0  0  0  0  0999 V2000
   -0.2020   43.3190   54.1890 C   0  0  0  0  0  0  0  0  0  0  0  0
    1.2310   43.6590   54.0960 N   0  0  0  0  0  0  0  0  0  0  0  0
    1.5670   44.6210   55.1600 C   0  0  0  0  0  0  0  0  0  0  0  0
    1.5770   44.2380   52.7760 C   0  0  0  0  0  0  0  0  0  0  0  0
    3.1080   44.2940   52.5350 C   0  0  1  0  0  0  0  0  0  0  0  0
    3.6350   43.2120   51.5880 C   0  0  0  0  0  0  0  0  0  0  0  0
    2.7160   42.3490   50.9600 C   0  0  0  0  0  0  0  0  0  0  0  0
    3.1540   41.3390   50.1000 C   0  0  0  0  0  0  0  0  0  0  0  0
    4.5160   41.1770   49.8470 C   0  0  0  0  0  0  0  0  0  0  0  0
    5.4420   42.0280   50.4510 C   0  0  0  0  0  0  0  0  0  0  0  0
    5.0100   43.0400   51.3130 C   0  0  0  0  0  0  0  0  0  0  0  0
    3.5560   45.6780   52.2050 N   0  0  0  0  0  0  0  0  0  0  0  0
    2.4440   46.6390   52.2030 C   0  0  0  0  0  0  0  0  0  0  0  0
    4.8730   46.3170   53.1760 S   0  0  0  0  0  0  0  0  0  0  0  0
    4.9520   45.6040   54.4980 O   0  0  0  0  0  0  0  0  0  0  0  0
    4.6250   47.7750   53.4520 O   0  0  0  0  0  0  0  0  0  0  0  0
    6.4140   46.2030   52.3340 C   0  0  0  0  0  0  0  0  0  0  0  0
    6.5330   45.7230   51.0290 C   0  0  0  0  0  0  0  0  0  0  0  0
    8.1590   45.7590   50.5770 S   0  0  0  0  0  0  0  0  0  0  0  0
    8.7180   46.3660   52.0370 C   0  0  0  0  0  0  0  0  0  0  0  0
   10.0290   46.6670   52.3980 C   0  0  0  0  0  0  0  0  0  0  0  0
   10.2620   47.1740   53.6850 C   0  0  0  0  0  0  0  0  0  0  0  0
    9.1910   47.3670   54.5780 C   0  0  0  0  0  0  0  0  0  0  0  0
    7.8770   47.0560   54.1920 C   0  0  0  0  0  0  0  0  0  0  0  0
    7.6510   46.5540   52.9020 C   0  0  0  0  0  0  0  0  0  0  0  0
   -0.4945   43.2496   55.2471 H   0  0  0  0  0  0  0  0  0  0  0  0
   -0.7972   44.1009   53.6946 H   0  0  0  0  0  0  0  0  0  0  0  0
   -0.3825   42.3531   53.6946 H   0  0  0  0  0  0  0  0  0  0  0  0
    1.4036   44.1533   56.1421 H   0  0  0  0  0  0  0  0  0  0  0  0
    2.6220   44.9178   55.0662 H   0  0  0  0  0  0  0  0  0  0  0  0
    0.9262   45.5101   55.0662 H   0  0  0  0  0  0  0  0  0  0  0  0
    1.1183   43.6212   51.9891 H   0  0  0  0  0  0  0  0  0  0  0  0
    1.1972   45.2701   52.7538 H   0  0  0  0  0  0  0  0  0  0  0  0
    3.5868   44.0353   53.4909 H   0  0  0  0  0  0  0  0  0  0  0  0
    1.6394   42.4719   51.1492 H   0  0  0  0  0  0  0  0  0  0  0  0
    2.4234   40.6703   49.6215 H   0  0  0  0  0  0  0  0  0  0  0  0
    4.8597   40.3793   49.1721 H   0  0  0  0  0  0  0  0  0  0  0  0
    6.5158   41.9021   50.2482 H   0  0  0  0  0  0  0  0  0  0  0  0
    5.7473   43.7085   51.7815 H   0  0  0  0  0  0  0  0  0  0  0  0
    2.1655   46.8797   53.2396 H   0  0  0  0  0  0  0  0  0  0  0  0
    2.7544   47.5578   51.6840 H   0  0  0  0  0  0  0  0  0  0  0  0
    1.5798   46.1987   51.6840 H   0  0  0  0  0  0  0  0  0  0  0  0
    5.7017   45.3771   50.3971 H   0  0  0  0  0  0  0  0  0  0  0  0
   10.8591   46.5114   51.6932 H   0  0  0  0  0  0  0  0  0  0  0  0
   11.2869   47.4221   53.9981 H   0  0  0  0  0  0  0  0  0  0  0  0
    9.3847   47.7642   55.5853 H   0  0  0  0  0  0  0  0  0  0  0  0
    7.0393   47.2036   54.8895 H   0  0  0  0  0  0  0  0  0  0  0  0
  1  2  1  0
  2  3  1  0
  2  4  1  0
  4  5  1  0
  5  6  1  0
  6  7  2  0
  7  8  1  0
  8  9  2  0
  9 10  1  0
 10 11  2  0
  5 12  1  0
 12 13  1  0
 12 14  1  0
 14 15  2  0
 14 16  2  0
 14 17  1  0
 17 18  2  0
 18 19  1  0
 19 20  1  0
 20 21  2  0
 21 22  1  0
 22 23  2  0
 23 24  1  0
 24 25  2  0
 11  6  1  0
 25 17  1  0
 25 20  1  0
  1 26  1  0
  1 27  1  0
  1 28  1  0
  3 29  1  0
  3 30  1  0
  3 31  1  0
  4 32  1  0
  4 33  1  0
  5 34  1  1
  7 35  1  0
  8 36  1  0
  9 37  1  0
 10 38  1  0
 11 39  1  0
 13 40  1  0
 13 41  1  0
 13 42  1  0
 18 43  1  0
 21 44  1  0
 22 45  1  0
 23 46  1  0
 24 47  1  0
M  END
>  <meeko>  (2) 
{"is_sidechain": [false], "free_energy": -8.44, "intermolecular_energy": -11.522, "internal_energy": -0.542}

$$$$
ligand_90_conformer_4_docked
     RDKit          3D

 47 49  0  0  0  0  0  0  0  0999 V2000
    8.0610   48.3390   52.1140 C   0  0  0  0  0  0  0  0  0  0  0  0
    7.9140   47.6170   53.3920 N   0  0  0  0  0  0  0  0  0  0  0  0
    9.0970   47.8780   54.2320 C   0  0  0  0  0  0  0  0  0  0  0  0
    7.7650   46.1560   53.1880 C   0  0  0  0  0  0  0  0  0  0  0  0
    6.4890   45.7970   52.3830 C   0  0  1  0  0  0  0  0  0  0  0  0
    6.7450   44.9100   51.1610 C   0  0  0  0  0  0  0  0  0  0  0  0
    5.8110   43.9050   50.8390 C   0  0  0  0  0  0  0  0  0  0  0  0
    6.0130   43.0650   49.7420 C   0  0  0  0  0  0  0  0  0  0  0  0
    7.1460   43.2150   48.9430 C   0  0  0  0  0  0  0  0  0  0  0  0
    8.0790   44.2100   49.2390 C   0  0  0  0  0  0  0  0  0  0  0  0
    7.8830   45.0550   50.3350 C   0  0  0  0  0  0  0  0  0  0  0  0
    5.3980   45.3150   53.2790 N   0  0  0  0  0  0  0  0  0  0  0  0
    5.9050   44.8720   54.5860 C   0  0  0  0  0  0  0  0  0  0  0  0
    4.0520   46.4170   53.5220 S   0  0  0  0  0  0  0  0  0  0  0  0
    3.7130   47.1310   52.2420 O   0  0  0  0  0  0  0  0  0  0  0  0
    4.4360   47.4550   54.5400 O   0  0  0  0  0  0  0  0  0  0  0  0
    2.6340   45.5810   54.1420 C   0  0  0  0  0  0  0  0  0  0  0  0
    2.0730   45.8610   55.3890 C   0  0  0  0  0  0  0  0  0  0  0  0
    0.7390   44.8530   55.6300 S   0  0  0  0  0  0  0  0  0  0  0  0
    0.8790   44.0500   54.1650 C   0  0  0  0  0  0  0  0  0  0  0  0
    0.0700   43.0350   53.6600 C   0  0  0  0  0  0  0  0  0  0  0  0
    0.3780   42.5100   52.3950 C   0  0  0  0  0  0  0  0  0  0  0  0
    1.4770   43.0030   51.6690 C   0  0  0  0  0  0  0  0  0  0  0  0
    2.2790   44.0280   52.1990 C   0  0  0  0  0  0  0  0  0  0  0  0
    1.9630   44.5520   53.4600 C   0  0  0  0  0  0  0  0  0  0  0  0
    8.2768   49.3989   52.3143 H   0  0  0  0  0  0  0  0  0  0  0  0
    8.8880   47.8991   51.5373 H   0  0  0  0  0  0  0  0  0  0  0  0
    7.1278   48.2574   51.5373 H   0  0  0  0  0  0  0  0  0  0  0  0
    8.8142   47.8156   55.2932 H   0  0  0  0  0  0  0  0  0  0  0  0
    9.8733   47.1295   54.0148 H   0  0  0  0  0  0  0  0  0  0  0  0
    9.4863   48.8836   54.0148 H   0  0  0  0  0  0  0  0  0  0  0  0
    8.6439   45.7846   52.6406 H   0  0  0  0  0  0  0  0  0  0  0  0
    7.6786   45.6867   54.1791 H   0  0  0  0  0  0  0  0  0  0  0  0
    6.1278   46.7338   51.9336 H   0  0  0  0  0  0  0  0  0  0  0  0
    4.9114   43.7807   51.4597 H   0  0  0  0  0  0  0  0  0  0  0  0
    5.2762   42.2826   49.5074 H   0  0  0  0  0  0  0  0  0  0  0  0
    7.3042   42.5503   48.0809 H   0  0  0  0  0  0  0  0  0  0  0  0
    8.9717   44.3296   48.6075 H   0  0  0  0  0  0  0  0  0  0  0  0
    8.6210   45.8400   50.5568 H   0  0  0  0  0  0  0  0  0  0  0  0
    5.3372   45.3681   55.3869 H   0  0  0  0  0  0  0  0  0  0  0  0
    5.7876   43.7819   54.6745 H   0  0  0  0  0  0  0  0  0  0  0  0
    6.9695   45.1345   54.6745 H   0  0  0  0  0  0  0  0  0  0  0  0
    2.4401   46.6159   56.0998 H   0  0  0  0  0  0  0  0  0  0  0  0
   -0.7865   42.6553   54.2364 H   0  0  0  0  0  0  0  0  0  0  0  0
   -0.2437   41.7086   51.9693 H   0  0  0  0  0  0  0  0  0  0  0  0
    1.7104   42.5833   50.6794 H   0  0  0  0  0  0  0  0  0  0  0  0
    3.1405   44.4128   51.6336 H   0  0  0  0  0  0  0  0  0  0  0  0
  1  2  1  0
  2  3  1  0
  2  4  1  0
  4  5  1  0
  5  6  1  0
  6  7  2  0
  7  8  1  0
  8  9  2  0
  9 10  1  0
 10 11  2  0
  5 12  1  0
 12 13  1  0
 12 14  1  0
 14 15  2  0
 14 16  2  0
 14 17  1  0
 17 18  2  0
 18 19  1  0
 19 20  1  0
 20 21  2  0
 21 22  1  0
 22 23  2  0
 23 24  1  0
 24 25  2  0
 11  6  1  0
 25 17  1  0
 25 20  1  0
  1 26  1  0
  1 27  1  0
  1 28  1  0
  3 29  1  0
  3 30  1  0
  3 31  1  0
  4 32  1  0
  4 33  1  0
  5 34  1  6
  7 35  1  0
  8 36  1  0
  9 37  1  0
 10 38  1  0
 11 39  1  0
 13 40  1  0
 13 41  1  0
 13 42  1  0
 18 43  1  0
 21 44  1  0
 22 45  1  0
 23 46  1  0
 24 47  1  0
M  END
>  <meeko>  (3) 
{"is_sidechain": [false], "free_energy": -8.405, "intermolecular_energy": -10.852, "internal_energy": -1.165}

$$$$
ligand_90_conformer_4_docked
     RDKit          3D

 47 49  0  0  0  0  0  0  0  0999 V2000
    7.1000   43.4220   49.3530 C   0  0  0  0  0  0  0  0  0  0  0  0
    6.2880   43.5080   50.5820 N   0  0  0  0  0  0  0  0  0  0  0  0
    5.1330   42.6010   50.4600 C   0  0  0  0  0  0  0  0  0  0  0  0
    5.8110   44.8890   50.8330 C   0  0  0  0  0  0  0  0  0  0  0  0
    6.0330   45.3360   52.3010 C   0  0  1  0  0  0  0  0  0  0  0  0
    7.3920   45.9940   52.5590 C   0  0  0  0  0  0  0  0  0  0  0  0
    7.7010   46.4310   53.8630 C   0  0  0  0  0  0  0  0  0  0  0  0
    8.9230   47.0490   54.1390 C   0  0  0  0  0  0  0  0  0  0  0  0
    9.8590   47.2390   53.1220 C   0  0  0  0  0  0  0  0  0  0  0  0
    9.5750   46.8050   51.8260 C   0  0  0  0  0  0  0  0  0  0  0  0
    8.3550   46.1850   51.5430 C   0  0  0  0  0  0  0  0  0  0  0  0
    4.8650   46.1050   52.8190 N   0  0  0  0  0  0  0  0  0  0  0  0
    3.8570   46.3560   51.7780 C   0  0  0  0  0  0  0  0  0  0  0  0
    4.0760   45.4480   54.2430 S   0  0  0  0  0  0  0  0  0  0  0  0
    3.6780   46.5510   55.1860 O   0  0  0  0  0  0  0  0  0  0  0  0
    5.0320   44.5430   54.9700 O   0  0  0  0  0  0  0  0  0  0  0  0
    2.6690   44.4810   53.8180 C   0  0  0  0  0  0  0  0  0  0  0  0
    2.6480   43.6110   52.7260 C   0  0  0  0  0  0  0  0  0  0  0  0
    1.1300   42.8740   52.6400 S   0  0  0  0  0  0  0  0  0  0  0  0
    0.4920   43.6670   53.9730 C   0  0  0  0  0  0  0  0  0  0  0  0
   -0.7830   43.5410   54.5200 C   0  0  0  0  0  0  0  0  0  0  0  0
   -1.0970   44.3090   55.6520 C   0  0  0  0  0  0  0  0  0  0  0  0
   -0.1420   45.1800   56.2070 C   0  0  0  0  0  0  0  0  0  0  0  0
    1.1370   45.2910   55.6380 C   0  0  0  0  0  0  0  0  0  0  0  0
    1.4470   44.5170   54.5110 C   0  0  0  0  0  0  0  0  0  0  0  0
    8.1608   43.3097   49.6215 H   0  0  0  0  0  0  0  0  0  0  0  0
    6.7777   42.5530   48.7606 H   0  0  0  0  0  0  0  0  0  0  0  0
    6.9669   44.3393   48.7606 H   0  0  0  0  0  0  0  0  0  0  0  0
    4.7781   42.3223   51.4632 H   0  0  0  0  0  0  0  0  0  0  0  0
    4.3247   43.1082   49.9129 H   0  0  0  0  0  0  0  0  0  0  0  0
    5.4341   41.6955   49.9129 H   0  0  0  0  0  0  0  0  0  0  0  0
    6.3552   45.5764   50.1687 H   0  0  0  0  0  0  0  0  0  0  0  0
    4.7288   44.9097   50.6372 H   0  0  0  0  0  0  0  0  0  0  0  0
    6.0878   44.4174   52.9037 H   0  0  0  0  0  0  0  0  0  0  0  0
    6.9713   46.2837   54.6728 H   0  0  0  0  0  0  0  0  0  0  0  0
    9.1480   47.3869   55.1614 H   0  0  0  0  0  0  0  0  0  0  0  0
   10.8188   47.7298   53.3410 H   0  0  0  0  0  0  0  0  0  0  0  0
   10.3142   46.9516   51.0246 H   0  0  0  0  0  0  0  0  0  0  0  0
    8.1424   45.8424   50.5195 H   0  0  0  0  0  0  0  0  0  0  0  0
    2.8933   46.5960   52.2510 H   0  0  0  0  0  0  0  0  0  0  0  0
    4.1789   47.2014   51.1522 H   0  0  0  0  0  0  0  0  0  0  0  0
    3.7448   45.4584   51.1522 H   0  0  0  0  0  0  0  0  0  0  0  0
    3.4844   43.4341   52.0338 H   0  0  0  0  0  0  0  0  0  0  0  0
   -1.5232   42.8585   54.0770 H   0  0  0  0  0  0  0  0  0  0  0  0
   -2.0951   44.2294   56.1076 H   0  0  0  0  0  0  0  0  0  0  0  0
   -0.3990   45.7786   57.0933 H   0  0  0  0  0  0  0  0  0  0  0  0
    1.8834   45.9741   56.0695 H   0  0  0  0  0  0  0  0  0  0  0  0
  1  2  1  0
  2  3  1  0
  2  4  1  0
  4  5  1  0
  5  6  1  0
  6  7  2  0
  7  8  1  0
  8  9  2  0
  9 10  1  0
 10 11  2  0
  5 12  1  0
 12 13  1  0
 12 14  1  0
 14 15  2  0
 14 16  2  0
 14 17  1  0
 17 18  2  0
 18 19  1  0
 19 20  1  0
 20 21  2  0
 21 22  1  0
 22 23  2  0
 23 24  1  0
 24 25  2  0
 11  6  1  0
 25 17  1  0
 25 20  1  0
  1 26  1  0
  1 27  1  0
  1 28  1  0
  3 29  1  0
  3 30  1  0
  3 31  1  0
  4 32  1  0
  4 33  1  0
  5 34  1  1
  7 35  1  0
  8 36  1  0
  9 37  1  0
 10 38  1  0
 11 39  1  0
 13 40  1  0
 13 41  1  0
 13 42  1  0
 18 43  1  0
 21 44  1  0
 22 45  1  0
 23 46  1  0
 24 47  1  0
M  END
>  <meeko>  (4) 
{"is_sidechain": [false], "free_energy": -7.774, "intermolecular_energy": -11.147, "internal_energy": -0.017}

$$$$
ligand_90_conformer_4_docked
     RDKit          3D

 47 49  0  0  0  0  0  0  0  0999 V2000
    7.7040   43.4970   49.2060 C   0  0  0  0  0  0  0  0  0  0  0  0
    6.6360   43.3020   50.2050 N   0  0  0  0  0  0  0  0  0  0  0  0
    5.7470   42.2160   49.7540 C   0  0  0  0  0  0  0  0  0  0  0  0
    5.8430   44.5370   50.4140 C   0  0  0  0  0  0  0  0  0  0  0  0
    5.7850   44.9600   51.9050 C   0  0  1  0  0  0  0  0  0  0  0  0
    6.9280   45.8800   52.3420 C   0  0  0  0  0  0  0  0  0  0  0  0
    7.0980   46.1510   53.7150 C   0  0  0  0  0  0  0  0  0  0  0  0
    8.1190   46.9960   54.1560 C   0  0  0  0  0  0  0  0  0  0  0  0
    8.9900   47.5820   53.2380 C   0  0  0  0  0  0  0  0  0  0  0  0
    8.8440   47.3190   51.8750 C   0  0  0  0  0  0  0  0  0  0  0  0
    7.8250   46.4740   51.4270 C   0  0  0  0  0  0  0  0  0  0  0  0
    4.4250   45.4410   52.2810 N   0  0  0  0  0  0  0  0  0  0  0  0
    3.9330   46.4900   51.3750 C   0  0  0  0  0  0  0  0  0  0  0  0
    3.1890   44.2060   52.4620 S   0  0  0  0  0  0  0  0  0  0  0  0
    3.8150   42.8480   52.6200 O   0  0  0  0  0  0  0  0  0  0  0  0
    2.3300   44.1770   51.2280 O   0  0  0  0  0  0  0  0  0  0  0  0
    2.1280   44.5450   53.8250 C   0  0  0  0  0  0  0  0  0  0  0  0
    2.5780   45.1240   55.0120 C   0  0  0  0  0  0  0  0  0  0  0  0
    1.2750   45.2800   56.0750 S   0  0  0  0  0  0  0  0  0  0  0  0
    0.1430   44.6000   55.0420 C   0  0  0  0  0  0  0  0  0  0  0  0
   -1.2170   44.3990   55.2680 C   0  0  0  0  0  0  0  0  0  0  0  0
   -1.9780   43.8100   54.2470 C   0  0  0  0  0  0  0  0  0  0  0  0
   -1.3710   43.4350   53.0340 C   0  0  0  0  0  0  0  0  0  0  0  0
    0.0020   43.6470   52.8290 C   0  0  0  0  0  0  0  0  0  0  0  0
    0.7560   44.2410   53.8510 C   0  0  0  0  0  0  0  0  0  0  0  0
    8.6602   43.6716   49.7209 H   0  0  0  0  0  0  0  0  0  0  0  0
    7.7853   42.5989   48.5761 H   0  0  0  0  0  0  0  0  0  0  0  0
    7.4627   44.3659   48.5761 H   0  0  0  0  0  0  0  0  0  0  0  0
    5.3249   41.7004   50.6292 H   0  0  0  0  0  0  0  0  0  0  0  0
    4.9314   42.6375   49.1481 H   0  0  0  0  0  0  0  0  0  0  0  0
    6.3213   41.4997   49.1481 H   0  0  0  0  0  0  0  0  0  0  0  0
    6.2998   45.3521   49.8335 H   0  0  0  0  0  0  0  0  0  0  0  0
    4.8136   44.3333   50.0840 H   0  0  0  0  0  0  0  0  0  0  0  0
    5.9643   44.0505   52.4971 H   0  0  0  0  0  0  0  0  0  0  0  0
    6.4184   45.6915   54.4478 H   0  0  0  0  0  0  0  0  0  0  0  0
    8.2364   47.1998   55.2306 H   0  0  0  0  0  0  0  0  0  0  0  0
    9.7907   48.2504   53.5875 H   0  0  0  0  0  0  0  0  0  0  0  0
    9.5332   47.7783   51.1511 H   0  0  0  0  0  0  0  0  0  0  0  0
    7.7206   46.2695   50.3512 H   0  0  0  0  0  0  0  0  0  0  0  0
    3.5391   47.3299   51.9661 H   0  0  0  0  0  0  0  0  0  0  0  0
    4.7591   46.8437   50.7406 H   0  0  0  0  0  0  0  0  0  0  0  0
    3.1328   46.0809   50.7406 H   0  0  0  0  0  0  0  0  0  0  0  0
    3.6138   45.4294   55.2215 H   0  0  0  0  0  0  0  0  0  0  0  0
   -1.6813   44.6939   56.2206 H   0  0  0  0  0  0  0  0  0  0  0  0
   -3.0547   43.6405   54.3954 H   0  0  0  0  0  0  0  0  0  0  0  0
   -1.9765   42.9724   52.2406 H   0  0  0  0  0  0  0  0  0  0  0  0
    0.4781   43.3519   51.8823 H   0  0  0  0  0  0  0  0  0  0  0  0
  1  2  1  0
  2  3  1  0
  2  4  1  0
  4  5  1  0
  5  6  1  0
  6  7  2  0
  7  8  1  0
  8  9  2  0
  9 10  1  0
 10 11  2  0
  5 12  1  0
 12 13  1  0
 12 14  1  0
 14 15  2  0
 14 16  2  0
 14 17  1  0
 17 18  2  0
 18 19  1  0
 19 20  1  0
 20 21  2  0
 21 22  1  0
 22 23  2  0
 23 24  1  0
 24 25  2  0
 11  6  1  0
 25 17  1  0
 25 20  1  0
  1 26  1  0
  1 27  1  0
  1 28  1  0
  3 29  1  0
  3 30  1  0
  3 31  1  0
  4 32  1  0
  4 33  1  0
  5 34  1  1
  7 35  1  0
  8 36  1  0
  9 37  1  0
 10 38  1  0
 11 39  1  0
 13 40  1  0
 13 41  1  0
 13 42  1  0
 18 43  1  0
 21 44  1  0
 22 45  1  0
 23 46  1  0
 24 47  1  0
M  END
>  <meeko>  (5) 
{"is_sidechain": [false], "free_energy": -7.61, "intermolecular_energy": -10.506, "internal_energy": -0.437}

$$$$
