ligand_18_conformer_4_docked
     RDKit          3D

 40 43  0  0  0  0  0  0  0  0999 V2000
    2.6080   44.9490   51.7100 O   0  0  0  0  0  0  0  0  0  0  0  0
    3.1830   43.8440   51.9140 C   0  0  0  0  0  0  0  0  0  0  0  0
    2.6200   42.9060   52.8470 N   0  0  0  0  0  0  0  0  0  0  0  0
    1.2790   43.0070   53.3530 C   0  0  0  0  0  0  0  0  0  0  0  0
    0.2250   42.3050   52.8770 N   0  0  0  0  0  0  0  0  0  0  0  0
   -0.8370   42.6460   53.6020 N   0  0  0  0  0  0  0  0  0  0  0  0
   -0.4030   43.5460   54.5040 C   0  0  0  0  0  0  0  0  0  0  0  0
   -1.1660   44.1820   55.4810 C   0  0  0  0  0  0  0  0  0  0  0  0
   -0.5060   45.0910   56.3260 C   0  0  0  0  0  0  0  0  0  0  0  0
    0.8750   45.3330   56.1740 C   0  0  0  0  0  0  0  0  0  0  0  0
    1.5900   44.6600   55.1710 C   0  0  0  0  0  0  0  0  0  0  0  0
    0.9080   43.7920   54.3790 N   0  0  0  0  0  0  0  0  0  0  0  0
    4.4530   43.5480   51.2070 C   0  0  0  0  0  0  0  0  0  0  0  0
    4.7140   42.2640   50.6960 C   0  0  0  0  0  0  0  0  0  0  0  0
    5.9050   42.0030   50.0130 C   0  0  0  0  0  0  0  0  0  0  0  0
    6.8480   43.0170   49.8360 C   0  0  0  0  0  0  0  0  0  0  0  0
    6.6160   44.2990   50.3460 C   0  0  0  0  0  0  0  0  0  0  0  0
    7.5890   45.3340   50.1270 N   0  0  0  0  0  0  0  0  0  0  0  0
    8.2520   46.0640   51.1750 C   0  0  0  0  0  0  0  0  0  0  0  0
    9.5820   45.7530   51.4980 C   0  0  0  0  0  0  0  0  0  0  0  0
   10.2360   46.4320   52.5310 C   0  0  0  0  0  0  0  0  0  0  0  0
    9.5610   47.4150   53.2590 C   0  0  0  0  0  0  0  0  0  0  0  0
    8.2300   47.7160   52.9610 C   0  0  0  0  0  0  0  0  0  0  0  0
    7.5720   47.0390   51.9290 C   0  0  0  0  0  0  0  0  0  0  0  0
    5.4040   44.5660   51.0100 C   0  0  0  0  0  0  0  0  0  0  0  0
    3.2220   42.1340   53.2040 H   0  0  0  0  0  0  0  0  0  0  0  0
   -2.2422   43.9808   55.5869 H   0  0  0  0  0  0  0  0  0  0  0  0
   -1.0701   45.6167   57.1105 H   0  0  0  0  0  0  0  0  0  0  0  0
    1.3886   46.0446   56.8372 H   0  0  0  0  0  0  0  0  0  0  0  0
    2.6677   44.8299   55.0307 H   0  0  0  0  0  0  0  0  0  0  0  0
    3.9761   41.4601   50.8348 H   0  0  0  0  0  0  0  0  0  0  0  0
    6.0998   40.9966   49.6141 H   0  0  0  0  0  0  0  0  0  0  0  0
    7.7803   42.8065   49.2915 H   0  0  0  0  0  0  0  0  0  0  0  0
    7.8340   45.5710   49.1380 H   0  0  0  0  0  0  0  0  0  0  0  0
   10.1129   44.9708   50.9355 H   0  0  0  0  0  0  0  0  0  0  0  0
   11.2824   46.1920   52.7704 H   0  0  0  0  0  0  0  0  0  0  0  0
   10.0782   47.9524   54.0676 H   0  0  0  0  0  0  0  0  0  0  0  0
    7.6985   48.4866   53.5387 H   0  0  0  0  0  0  0  0  0  0  0  0
    6.5198   47.2692   51.7059 H   0  0  0  0  0  0  0  0  0  0  0  0
    5.1981   45.5816   51.3789 H   0  0  0  0  0  0  0  0  0  0  0  0
  1  2  2  0
  2  3  1  0
  3  4  1  0
  4  5  2  0
  5  6  1  0
  6  7  2  0
  7  8  1  0
  8  9  2  0
  9 10  1  0
 10 11  2  0
 11 12  1  0
  2 13  1  0
 13 14  2  0
 14 15  1  0
 15 16  2  0
 16 17  1  0
 17 18  1  0
 18 19  1  0
 19 20  2  0
 20 21  1  0
 21 22  2  0
 22 23  1  0
 23 24  2  0
 17 25  2  0
 12  4  1  0
 25 13  1  0
 12  7  1  0
 24 19  1  0
  3 26  1  0
  8 27  1  0
  9 28  1  0
 10 29  1  0
 11 30  1  0
 14 31  1  0
 15 32  1  0
 16 33  1  0
 18 34  1  0
 20 35  1  0
 21 36  1  0
 22 37  1  0
 23 38  1  0
 24 39  1  0
 25 40  1  0
M  END
>  <meeko>  (1) 
{"is_sidechain": [false], "free_energy": -10.183, "intermolecular_energy": -12.564, "internal_energy": -0.669}

$$$$
ligand_18_conformer_4_docked
     RDKit          3D

 40 43  0  0  0  0  0  0  0  0999 V2000
    3.2490   42.3120   52.4460 O   0  0  0  0  0  0  0  0  0  0  0  0
    3.8190   43.3970   52.1470 C   0  0  0  0  0  0  0  0  0  0  0  0
    3.3350   44.6350   52.6950 N   0  0  0  0  0  0  0  0  0  0  0  0
    2.4240   44.7020   53.8030 C   0  0  0  0  0  0  0  0  0  0  0  0
    2.7900   44.9370   55.0840 N   0  0  0  0  0  0  0  0  0  0  0  0
    1.6800   44.9460   55.8180 N   0  0  0  0  0  0  0  0  0  0  0  0
    0.6640   44.7200   54.9640 C   0  0  0  0  0  0  0  0  0  0  0  0
   -0.6910   44.6470   55.2810 C   0  0  0  0  0  0  0  0  0  0  0  0
   -1.5890   44.4030   54.2270 C   0  0  0  0  0  0  0  0  0  0  0  0
   -1.1150   44.2440   52.9080 C   0  0  0  0  0  0  0  0  0  0  0  0
    0.2630   44.3300   52.6530 C   0  0  0  0  0  0  0  0  0  0  0  0
    1.0910   44.5660   53.7030 N   0  0  0  0  0  0  0  0  0  0  0  0
    4.9640   43.3760   51.2030 C   0  0  0  0  0  0  0  0  0  0  0  0
    5.1810   42.2770   50.3520 C   0  0  0  0  0  0  0  0  0  0  0  0
    6.2500   42.2800   49.4530 C   0  0  0  0  0  0  0  0  0  0  0  0
    7.1150   43.3740   49.3940 C   0  0  0  0  0  0  0  0  0  0  0  0
    6.9270   44.4730   50.2400 C   0  0  0  0  0  0  0  0  0  0  0  0
    7.8140   45.6000   50.1420 N   0  0  0  0  0  0  0  0  0  0  0  0
    8.3920   46.2810   51.2690 C   0  0  0  0  0  0  0  0  0  0  0  0
    9.6910   45.9500   51.6850 C   0  0  0  0  0  0  0  0  0  0  0  0
   10.2620   46.5800   52.7940 C   0  0  0  0  0  0  0  0  0  0  0  0
    9.5340   47.5360   53.5070 C   0  0  0  0  0  0  0  0  0  0  0  0
    8.2310   47.8570   53.1170 C   0  0  0  0  0  0  0  0  0  0  0  0
    7.6570   47.2270   52.0080 C   0  0  0  0  0  0  0  0  0  0  0  0
    5.8340   44.4790   51.1260 C   0  0  0  0  0  0  0  0  0  0  0  0
    3.6300   45.5280   52.2470 H   0  0  0  0  0  0  0  0  0  0  0  0
   -1.0441   44.7752   56.3149 H   0  0  0  0  0  0  0  0  0  0  0  0
   -2.6676   44.3357   54.4322 H   0  0  0  0  0  0  0  0  0  0  0  0
   -1.8199   44.0540   52.0852 H   0  0  0  0  0  0  0  0  0  0  0  0
    0.6596   44.2099   51.6340 H   0  0  0  0  0  0  0  0  0  0  0  0
    4.5049   41.4103   50.3948 H   0  0  0  0  0  0  0  0  0  0  0  0
    6.4107   41.4176   48.7894 H   0  0  0  0  0  0  0  0  0  0  0  0
    7.9499   43.3723   48.6778 H   0  0  0  0  0  0  0  0  0  0  0  0
    8.0570   45.9470   49.1860 H   0  0  0  0  0  0  0  0  0  0  0  0
   10.2636   45.1893   51.1342 H   0  0  0  0  0  0  0  0  0  0  0  0
   11.2851   46.3232   53.1058 H   0  0  0  0  0  0  0  0  0  0  0  0
    9.9868   48.0362   54.3758 H   0  0  0  0  0  0  0  0  0  0  0  0
    7.6565   48.6055   53.6825 H   0  0  0  0  0  0  0  0  0  0  0  0
    6.6263   47.4720   51.7119 H   0  0  0  0  0  0  0  0  0  0  0  0
    5.6577   45.3562   51.7659 H   0  0  0  0  0  0  0  0  0  0  0  0
  1  2  2  0
  2  3  1  0
  3  4  1  0
  4  5  2  0
  5  6  1  0
  6  7  2  0
  7  8  1  0
  8  9  2  0
  9 10  1  0
 10 11  2  0
 11 12  1  0
  2 13  1  0
 13 14  2  0
 14 15  1  0
 15 16  2  0
 16 17  1  0
 17 18  1  0
 18 19  1  0
 19 20  2  0
 20 21  1  0
 21 22  2  0
 22 23  1  0
 23 24  2  0
 17 25  2  0
 12  4  1  0
 25 13  1  0
 12  7  1  0
 24 19  1  0
  3 26  1  0
  8 27  1  0
  9 28  1  0
 10 29  1  0
 11 30  1  0
 14 31  1  0
 15 32  1  0
 16 33  1  0
 18 34  1  0
 20 35  1  0
 21 36  1  0
 22 37  1  0
 23 38  1  0
 24 39  1  0
 25 40  1  0
M  END
>  <meeko>  (2) 
{"is_sidechain": [false], "free_energy": -9.859, "intermolecular_energy": -12.101, "internal_energy": -0.733}

$$$$
ligand_18_conformer_4_docked
     RDKit          3D

 40 43  0  0  0  0  0  0  0  0999 V2000
    5.2790   45.1670   55.7170 O   0  0  0  0  0  0  0  0  0  0  0  0
    4.8120   45.3710   54.5630 C   0  0  0  0  0  0  0  0  0  0  0  0
    5.4780   46.2830   53.6730 N   0  0  0  0  0  0  0  0  0  0  0  0
    6.8140   46.7620   53.8920 C   0  0  0  0  0  0  0  0  0  0  0  0
    7.2030   47.4860   54.9670 N   0  0  0  0  0  0  0  0  0  0  0  0
    8.5040   47.7260   54.8330 N   0  0  0  0  0  0  0  0  0  0  0  0
    8.8780   47.1400   53.6800 C   0  0  0  0  0  0  0  0  0  0  0  0
   10.1570   47.1250   53.1290 C   0  0  0  0  0  0  0  0  0  0  0  0
   10.3270   46.4470   51.9090 C   0  0  0  0  0  0  0  0  0  0  0  0
    9.2320   45.8130   51.2870 C   0  0  0  0  0  0  0  0  0  0  0  0
    7.9670   45.8620   51.8930 C   0  0  0  0  0  0  0  0  0  0  0  0
    7.8520   46.5300   53.0710 N   0  0  0  0  0  0  0  0  0  0  0  0
    3.5600   44.6880   54.1580 C   0  0  0  0  0  0  0  0  0  0  0  0
    2.3450   44.9500   54.8180 C   0  0  0  0  0  0  0  0  0  0  0  0
    1.1690   44.3160   54.4130 C   0  0  0  0  0  0  0  0  0  0  0  0
    1.1890   43.4110   53.3490 C   0  0  0  0  0  0  0  0  0  0  0  0
    2.3880   43.1240   52.6860 C   0  0  0  0  0  0  0  0  0  0  0  0
    2.3790   42.2110   51.5750 N   0  0  0  0  0  0  0  0  0  0  0  0
    3.5010   41.9770   50.7060 C   0  0  0  0  0  0  0  0  0  0  0  0
    3.4190   40.9740   49.7280 C   0  0  0  0  0  0  0  0  0  0  0  0
    4.5070   40.7110   48.8900 C   0  0  0  0  0  0  0  0  0  0  0  0
    5.6920   41.4380   49.0340 C   0  0  0  0  0  0  0  0  0  0  0  0
    5.7920   42.4230   50.0190 C   0  0  0  0  0  0  0  0  0  0  0  0
    4.7060   42.6880   50.8600 C   0  0  0  0  0  0  0  0  0  0  0  0
    3.5670   43.7850   53.0790 C   0  0  0  0  0  0  0  0  0  0  0  0
    4.9560   46.6440   52.8460 H   0  0  0  0  0  0  0  0  0  0  0  0
   11.0007   47.6238   53.6284 H   0  0  0  0  0  0  0  0  0  0  0  0
   11.3200   46.4110   51.4371 H   0  0  0  0  0  0  0  0  0  0  0  0
    9.3683   45.2832   50.3327 H   0  0  0  0  0  0  0  0  0  0  0  0
    7.0964   45.3752   51.4293 H   0  0  0  0  0  0  0  0  0  0  0  0
    2.3218   45.6591   55.6586 H   0  0  0  0  0  0  0  0  0  0  0  0
    0.2237   44.5297   54.9333 H   0  0  0  0  0  0  0  0  0  0  0  0
    0.2571   42.9210   53.0303 H   0  0  0  0  0  0  0  0  0  0  0  0
    1.4980   41.6800   51.3880 H   0  0  0  0  0  0  0  0  0  0  0  0
    2.4926   40.3908   49.6199 H   0  0  0  0  0  0  0  0  0  0  0  0
    4.4303   39.9318   48.1173 H   0  0  0  0  0  0  0  0  0  0  0  0
    6.5461   41.2343   48.3714 H   0  0  0  0  0  0  0  0  0  0  0  0
    6.7266   42.9916   50.1337 H   0  0  0  0  0  0  0  0  0  0  0  0
    4.7940   43.4544   51.6441 H   0  0  0  0  0  0  0  0  0  0  0  0
    4.5045   43.5934   52.5364 H   0  0  0  0  0  0  0  0  0  0  0  0
  1  2  2  0
  2  3  1  0
  3  4  1  0
  4  5  2  0
  5  6  1  0
  6  7  2  0
  7  8  1  0
  8  9  2  0
  9 10  1  0
 10 11  2  0
 11 12  1  0
  2 13  1  0
 13 14  2  0
 14 15  1  0
 15 16  2  0
 16 17  1  0
 17 18  1  0
 18 19  1  0
 19 20  2  0
 20 21  1  0
 21 22  2  0
 22 23  1  0
 23 24  2  0
 17 25  2  0
 12  4  1  0
 25 13  1  0
 12  7  1  0
 24 19  1  0
  3 26  1  0
  8 27  1  0
  9 28  1  0
 10 29  1  0
 11 30  1  0
 14 31  1  0
 15 32  1  0
 16 33  1  0
 18 34  1  0
 20 35  1  0
 21 36  1  0
 22 37  1  0
 23 38  1  0
 24 39  1  0
 25 40  1  0
M  END
>  <meeko>  (3) 
{"is_sidechain": [false], "free_energy": -9.229, "intermolecular_energy": -12.195, "internal_energy": 0.139}

$$$$
ligand_18_conformer_4_docked
     RDKit          3D

 40 43  0  0  0  0  0  0  0  0999 V2000
    1.7280   42.7520   53.4740 O   0  0  0  0  0  0  0  0  0  0  0  0
    2.3650   43.8390   53.4010 C   0  0  0  0  0  0  0  0  0  0  0  0
    1.9150   44.9830   54.1480 N   0  0  0  0  0  0  0  0  0  0  0  0
    0.9540   44.8990   55.2130 C   0  0  0  0  0  0  0  0  0  0  0  0
    1.2570   44.9950   56.5280 N   0  0  0  0  0  0  0  0  0  0  0  0
    0.1170   44.8930   57.2050 N   0  0  0  0  0  0  0  0  0  0  0  0
   -0.8540   44.7410   56.2850 C   0  0  0  0  0  0  0  0  0  0  0  0
   -2.2180   44.5980   56.5280 C   0  0  0  0  0  0  0  0  0  0  0  0
   -3.0620   44.4550   55.4130 C   0  0  0  0  0  0  0  0  0  0  0  0
   -2.5270   44.4600   54.1080 C   0  0  0  0  0  0  0  0  0  0  0  0
   -1.1420   44.6090   53.9280 C   0  0  0  0  0  0  0  0  0  0  0  0
   -0.3680   44.7430   55.0360 N   0  0  0  0  0  0  0  0  0  0  0  0
    3.5510   43.9250   52.5160 C   0  0  0  0  0  0  0  0  0  0  0  0
    3.9100   42.8520   51.6790 C   0  0  0  0  0  0  0  0  0  0  0  0
    5.0170   42.9540   50.8340 C   0  0  0  0  0  0  0  0  0  0  0  0
    5.7820   44.1220   50.8160 C   0  0  0  0  0  0  0  0  0  0  0  0
    5.4520   45.1980   51.6490 C   0  0  0  0  0  0  0  0  0  0  0  0
    6.2370   46.4010   51.5920 N   0  0  0  0  0  0  0  0  0  0  0  0
    7.4960   46.5830   52.2620 C   0  0  0  0  0  0  0  0  0  0  0  0
    7.5130   47.0500   53.5850 C   0  0  0  0  0  0  0  0  0  0  0  0
    8.7270   47.2580   54.2470 C   0  0  0  0  0  0  0  0  0  0  0  0
    9.9340   47.0180   53.5850 C   0  0  0  0  0  0  0  0  0  0  0  0
    9.9290   46.5750   52.2600 C   0  0  0  0  0  0  0  0  0  0  0  0
    8.7170   46.3660   51.5950 C   0  0  0  0  0  0  0  0  0  0  0  0
    4.3200   45.1030   52.4790 C   0  0  0  0  0  0  0  0  0  0  0  0
    2.2740   45.9250   53.8830 H   0  0  0  0  0  0  0  0  0  0  0  0
   -2.6191   44.5970   57.5523 H   0  0  0  0  0  0  0  0  0  0  0  0
   -4.1460   44.3385   55.5591 H   0  0  0  0  0  0  0  0  0  0  0  0
   -3.1898   44.3480   53.2373 H   0  0  0  0  0  0  0  0  0  0  0  0
   -0.6982   44.6169   52.9215 H   0  0  0  0  0  0  0  0  0  0  0  0
    3.3147   41.9271   51.6905 H   0  0  0  0  0  0  0  0  0  0  0  0
    5.2873   42.1115   50.1804 H   0  0  0  0  0  0  0  0  0  0  0  0
    6.6491   44.1973   50.1434 H   0  0  0  0  0  0  0  0  0  0  0  0
    5.8670   47.1970   51.0230 H   0  0  0  0  0  0  0  0  0  0  0  0
    6.5652   47.2538   54.1048 H   0  0  0  0  0  0  0  0  0  0  0  0
    8.7319   47.6106   55.2890 H   0  0  0  0  0  0  0  0  0  0  0  0
   10.8887   47.1780   54.1075 H   0  0  0  0  0  0  0  0  0  0  0  0
   10.8801   46.3903   51.7391 H   0  0  0  0  0  0  0  0  0  0  0  0
    8.7173   46.0309   50.5473 H   0  0  0  0  0  0  0  0  0  0  0  0
    4.0326   45.9596   53.1064 H   0  0  0  0  0  0  0  0  0  0  0  0
  1  2  2  0
  2  3  1  0
  3  4  1  0
  4  5  2  0
  5  6  1  0
  6  7  2  0
  7  8  1  0
  8  9  2  0
  9 10  1  0
 10 11  2  0
 11 12  1  0
  2 13  1  0
 13 14  2  0
 14 15  1  0
 15 16  2  0
 16 17  1  0
 17 18  1  0
 18 19  1  0
 19 20  2  0
 20 21  1  0
 21 22  2  0
 22 23  1  0
 23 24  2  0
 17 25  2  0
 12  4  1  0
 25 13  1  0
 12  7  1  0
 24 19  1  0
  3 26  1  0
  8 27  1  0
  9 28  1  0
 10 29  1  0
 11 30  1  0
 14 31  1  0
 15 32  1  0
 16 33  1  0
 18 34  1  0
 20 35  1  0
 21 36  1  0
 22 37  1  0
 23 38  1  0
 24 39  1  0
 25 40  1  0
M  END
>  <meeko>  (4) 
{"is_sidechain": [false], "free_energy": -9.154, "intermolecular_energy": -11.256, "internal_energy": -0.707}

$$$$
ligand_18_conformer_4_docked
     RDKit          3D

 40 43  0  0  0  0  0  0  0  0999 V2000
    5.2080   44.3810   54.6320 O   0  0  0  0  0  0  0  0  0  0  0  0
    4.6420   45.0580   53.7290 C   0  0  0  0  0  0  0  0  0  0  0  0
    5.1980   46.3230   53.3290 N   0  0  0  0  0  0  0  0  0  0  0  0
    6.5260   46.7440   53.6760 C   0  0  0  0  0  0  0  0  0  0  0  0
    6.8550   47.3700   54.8290 N   0  0  0  0  0  0  0  0  0  0  0  0
    8.1680   47.5830   54.8040 N   0  0  0  0  0  0  0  0  0  0  0  0
    8.6080   47.0760   53.6360 C   0  0  0  0  0  0  0  0  0  0  0  0
    9.9220   47.0670   53.1740 C   0  0  0  0  0  0  0  0  0  0  0  0
   10.1600   46.4810   51.9190 C   0  0  0  0  0  0  0  0  0  0  0  0
    9.0970   45.9290   51.1750 C   0  0  0  0  0  0  0  0  0  0  0  0
    7.7940   45.9680   51.6960 C   0  0  0  0  0  0  0  0  0  0  0  0
    7.6130   46.5450   52.9120 N   0  0  0  0  0  0  0  0  0  0  0  0
    3.3910   44.5470   53.1180 C   0  0  0  0  0  0  0  0  0  0  0  0
    3.4160   43.4830   52.1980 C   0  0  0  0  0  0  0  0  0  0  0  0
    2.2290   42.9960   51.6470 C   0  0  0  0  0  0  0  0  0  0  0  0
    1.0050   43.5660   52.0020 C   0  0  0  0  0  0  0  0  0  0  0  0
    0.9560   44.6340   52.9060 C   0  0  0  0  0  0  0  0  0  0  0  0
   -0.3190   45.1860   53.2790 N   0  0  0  0  0  0  0  0  0  0  0  0
   -1.0470   44.8210   54.4640 C   0  0  0  0  0  0  0  0  0  0  0  0
   -0.4390   44.9670   55.7210 C   0  0  0  0  0  0  0  0  0  0  0  0
   -1.1200   44.5940   56.8840 C   0  0  0  0  0  0  0  0  0  0  0  0
   -2.4070   44.0580   56.7990 C   0  0  0  0  0  0  0  0  0  0  0  0
   -3.0130   43.8870   55.5520 C   0  0  0  0  0  0  0  0  0  0  0  0
   -2.3350   44.2590   54.3870 C   0  0  0  0  0  0  0  0  0  0  0  0
    2.1510   45.1040   53.4800 C   0  0  0  0  0  0  0  0  0  0  0  0
    4.5970   46.9840   52.7920 H   0  0  0  0  0  0  0  0  0  0  0  0
   10.7403   47.5010   53.7674 H   0  0  0  0  0  0  0  0  0  0  0  0
   11.1825   46.4528   51.5144 H   0  0  0  0  0  0  0  0  0  0  0  0
    9.2874   45.4710   50.1932 H   0  0  0  0  0  0  0  0  0  0  0  0
    6.9465   45.5446   51.1370 H   0  0  0  0  0  0  0  0  0  0  0  0
    4.3771   43.0316   51.9108 H   0  0  0  0  0  0  0  0  0  0  0  0
    2.2584   42.1611   50.9314 H   0  0  0  0  0  0  0  0  0  0  0  0
    0.0732   43.1735   51.5687 H   0  0  0  0  0  0  0  0  0  0  0  0
   -0.7430   45.9020   52.6460 H   0  0  0  0  0  0  0  0  0  0  0  0
    0.5792   45.3773   55.7915 H   0  0  0  0  0  0  0  0  0  0  0  0
   -0.6419   44.7228   57.8663 H   0  0  0  0  0  0  0  0  0  0  0  0
   -2.9439   43.7702   57.7149 H   0  0  0  0  0  0  0  0  0  0  0  0
   -4.0244   43.4594   55.4865 H   0  0  0  0  0  0  0  0  0  0  0  0
   -2.8104   44.1117   53.4060 H   0  0  0  0  0  0  0  0  0  0  0  0
    2.1155   45.9166   54.2206 H   0  0  0  0  0  0  0  0  0  0  0  0
  1  2  2  0
  2  3  1  0
  3  4  1  0
  4  5  2  0
  5  6  1  0
  6  7  2  0
  7  8  1  0
  8  9  2  0
  9 10  1  0
 10 11  2  0
 11 12  1  0
  2 13  1  0
 13 14  2  0
 14 15  1  0
 15 16  2  0
 16 17  1  0
 17 18  1  0
 18 19  1  0
 19 20  2  0
 20 21  1  0
 21 22  2  0
 22 23  1  0
 23 24  2  0
 17 25  2  0
 12  4  1  0
 25 13  1  0
 12  7  1  0
 24 19  1  0
  3 26  1  0
  8 27  1  0
  9 28  1  0
 10 29  1  0
 11 30  1  0
 14 31  1  0
 15 32  1  0
 16 33  1  0
 18 34  1  0
 20 35  1  0
 21 36  1  0
 22 37  1  0
 23 38  1  0
 24 39  1  0
 25 40  1  0
M  END
>  <meeko>  (5) 
{"is_sidechain": [false], "free_energy": -8.79, "intermolecular_energy": -10.862, "internal_energy": -0.653}

$$$$
