ligand_10_conformer_5_docked
     RDKit          3D

 50 53  0  0  0  0  0  0  0  0999 V2000
   -3.5680   42.7650   58.9660 C   0  0  0  0  0  0  0  0  0  0  0  0
   -3.1100   43.6890   57.8760 C   0  0  0  0  0  0  0  0  0  0  0  0
   -3.2630   45.0780   58.0070 C   0  0  0  0  0  0  0  0  0  0  0  0
   -2.8800   45.9280   56.9660 C   0  0  0  0  0  0  0  0  0  0  0  0
   -2.3420   45.3990   55.7900 C   0  0  0  0  0  0  0  0  0  0  0  0
   -2.1910   44.0080   55.6430 C   0  0  0  0  0  0  0  0  0  0  0  0
   -1.7120   43.4340   54.4570 O   0  0  0  0  0  0  0  0  0  0  0  0
   -0.5860   43.8640   53.7400 C   0  0  0  0  0  0  0  0  0  0  0  0
   -0.6750   44.7810   52.6810 C   0  0  0  0  0  0  0  0  0  0  0  0
    0.4830   45.2130   52.0290 C   0  0  0  0  0  0  0  0  0  0  0  0
    1.7320   44.7130   52.4370 C   0  0  0  0  0  0  0  0  0  0  0  0
    2.9800   45.1310   51.7610 C   0  0  0  0  0  0  0  0  0  0  0  0
    2.9240   45.9230   50.7810 O   0  0  0  0  0  0  0  0  0  0  0  0
    4.2560   44.6840   52.2520 N   0  0  0  0  0  0  0  0  0  0  0  0
    5.4920   44.8000   51.5250 C   0  0  0  0  0  0  0  0  0  0  0  0
    5.7310   43.9460   50.4390 C   0  0  0  0  0  0  0  0  0  0  0  0
    6.9110   44.0530   49.7010 C   0  0  0  0  0  0  0  0  0  0  0  0
    7.8600   45.0210   50.0310 C   0  0  0  0  0  0  0  0  0  0  0  0
    7.6340   45.9010   51.0990 C   0  0  0  0  0  0  0  0  0  0  0  0
    8.6670   46.9490   51.4530 C   0  0  1  0  0  0  0  0  0  0  0  0
    8.0420   48.1970   52.1340 C   0  0  0  0  0  0  0  0  0  0  0  0
    8.6060   48.2680   53.5650 C   0  0  0  0  0  0  0  0  0  0  0  0
    9.5750   47.1540   53.6040 C   0  0  0  0  0  0  0  0  0  0  0  0
   10.2880   46.8760   54.6060 O   0  0  0  0  0  0  0  0  0  0  0  0
    9.6170   46.4080   52.4090 N   0  0  0  0  0  0  0  0  0  0  0  0
    6.4420   45.7890   51.8410 C   0  0  0  0  0  0  0  0  0  0  0  0
    1.7880   43.8220   53.4660 N   0  0  0  0  0  0  0  0  0  0  0  0
    0.6760   43.4080   54.1260 C   0  0  0  0  0  0  0  0  0  0  0  0
   -2.5910   43.1600   56.6830 C   0  0  0  0  0  0  0  0  0  0  0  0
   -3.3453   43.2142   59.9451 H   0  0  0  0  0  0  0  0  0  0  0  0
   -4.6519   42.6006   58.8760 H   0  0  0  0  0  0  0  0  0  0  0  0
   -3.0425   41.8029   58.8760 H   0  0  0  0  0  0  0  0  0  0  0  0
   -3.6855   45.4986   58.9314 H   0  0  0  0  0  0  0  0  0  0  0  0
   -3.0023   47.0160   57.0726 H   0  0  0  0  0  0  0  0  0  0  0  0
   -2.0354   46.0726   54.9762 H   0  0  0  0  0  0  0  0  0  0  0  0
   -1.6577   45.1601   52.3639 H   0  0  0  0  0  0  0  0  0  0  0  0
    0.4179   45.9377   51.2040 H   0  0  0  0  0  0  0  0  0  0  0  0
    4.3050   44.3060   53.2250 H   0  0  0  0  0  0  0  0  0  0  0  0
    4.9834   43.1864   50.1667 H   0  0  0  0  0  0  0  0  0  0  0  0
    7.0932   43.3720   48.8566 H   0  0  0  0  0  0  0  0  0  0  0  0
    8.7911   45.0943   49.4499 H   0  0  0  0  0  0  0  0  0  0  0  0
    9.1413   47.2367   50.5031 H   0  0  0  0  0  0  0  0  0  0  0  0
    8.3137   49.1056   51.5767 H   0  0  0  0  0  0  0  0  0  0  0  0
    6.9446   48.1229   52.1510 H   0  0  0  0  0  0  0  0  0  0  0  0
    9.1057   49.2314   53.7442 H   0  0  0  0  0  0  0  0  0  0  0  0
    7.8281   48.1891   54.3387 H   0  0  0  0  0  0  0  0  0  0  0  0
   10.2360   45.5840   52.2390 H   0  0  0  0  0  0  0  0  0  0  0  0
    6.2520   46.4807   52.6749 H   0  0  0  0  0  0  0  0  0  0  0  0
    0.7699   42.7090   54.9701 H   0  0  0  0  0  0  0  0  0  0  0  0
   -2.4980   42.0704   56.5646 H   0  0  0  0  0  0  0  0  0  0  0  0
  1  2  1  0
  2  3  2  0
  3  4  1  0
  4  5  2  0
  5  6  1  0
  6  7  1  0
  7  8  1  0
  8  9  2  0
  9 10  1  0
 10 11  2  0
 11 12  1  0
 12 13  2  0
 12 14  1  0
 14 15  1  0
 15 16  2  0
 16 17  1  0
 17 18  2  0
 18 19  1  0
 19 20  1  0
 20 21  1  0
 21 22  1  0
 22 23  1  0
 23 24  2  0
 23 25  1  0
 19 26  2  0
 11 27  1  0
 27 28  2  0
  6 29  2  0
 29  2  1  0
 28  8  1  0
 26 15  1  0
 25 20  1  0
  1 30  1  0
  1 31  1  0
  1 32  1  0
  3 33  1  0
  4 34  1  0
  5 35  1  0
  9 36  1  0
 10 37  1  0
 14 38  1  0
 16 39  1  0
 17 40  1  0
 18 41  1  0
 20 42  1  6
 21 43  1  0
 21 44  1  0
 22 45  1  0
 22 46  1  0
 25 47  1  0
 26 48  1  0
 28 49  1  0
 29 50  1  0
M  END
>  <meeko>  (1) 
{"is_sidechain": [false], "free_energy": -9.155, "intermolecular_energy": -11.831, "internal_energy": -0.845}

$$$$
ligand_10_conformer_5_docked
     RDKit          3D

 50 53  0  0  0  0  0  0  0  0999 V2000
   10.6010   47.3650   55.4670 C   0  0  0  0  0  0  0  0  0  0  0  0
    9.7430   47.1940   54.2480 C   0  0  0  0  0  0  0  0  0  0  0  0
   10.2930   46.7050   53.0530 C   0  0  0  0  0  0  0  0  0  0  0  0
    9.4990   46.5970   51.9080 C   0  0  0  0  0  0  0  0  0  0  0  0
    8.1540   46.9740   51.9480 C   0  0  0  0  0  0  0  0  0  0  0  0
    7.5940   47.4720   53.1380 C   0  0  0  0  0  0  0  0  0  0  0  0
    6.2660   47.9170   53.2030 O   0  0  0  0  0  0  0  0  0  0  0  0
    5.1440   47.1060   53.4280 C   0  0  0  0  0  0  0  0  0  0  0  0
    5.2320   45.8700   54.0870 C   0  0  0  0  0  0  0  0  0  0  0  0
    4.0770   45.1210   54.3280 C   0  0  0  0  0  0  0  0  0  0  0  0
    2.8340   45.6110   53.8940 C   0  0  0  0  0  0  0  0  0  0  0  0
    1.5890   44.8410   54.1130 C   0  0  0  0  0  0  0  0  0  0  0  0
    1.5670   43.6060   53.8590 O   0  0  0  0  0  0  0  0  0  0  0  0
    0.4260   45.4820   54.6650 N   0  0  0  0  0  0  0  0  0  0  0  0
   -0.8940   44.9110   54.6630 C   0  0  0  0  0  0  0  0  0  0  0  0
   -1.5260   44.6390   55.8850 C   0  0  0  0  0  0  0  0  0  0  0  0
   -2.8160   44.1070   55.9120 C   0  0  0  0  0  0  0  0  0  0  0  0
   -3.4960   43.8530   54.7200 C   0  0  0  0  0  0  0  0  0  0  0  0
   -2.8930   44.1380   53.4850 C   0  0  0  0  0  0  0  0  0  0  0  0
   -3.6350   43.8600   52.1950 C   0  0  1  0  0  0  0  0  0  0  0  0
   -3.7330   45.1120   51.2810 C   0  0  0  0  0  0  0  0  0  0  0  0
   -2.9470   44.8020   49.9950 C   0  0  0  0  0  0  0  0  0  0  0  0
   -2.5340   43.3960   50.1780 C   0  0  0  0  0  0  0  0  0  0  0  0
   -1.8810   42.7360   49.3250 O   0  0  0  0  0  0  0  0  0  0  0  0
   -2.9260   42.8570   51.4210 N   0  0  0  0  0  0  0  0  0  0  0  0
   -1.5910   44.6730   53.4630 C   0  0  0  0  0  0  0  0  0  0  0  0
    2.7780   46.8120   53.2540 N   0  0  0  0  0  0  0  0  0  0  0  0
    3.8870   47.5650   53.0310 C   0  0  0  0  0  0  0  0  0  0  0  0
    8.3980   47.5930   54.2770 C   0  0  0  0  0  0  0  0  0  0  0  0
    9.9844   47.2421   56.3696 H   0  0  0  0  0  0  0  0  0  0  0  0
   11.3994   46.6083   55.4625 H   0  0  0  0  0  0  0  0  0  0  0  0
   11.0483   48.3700   55.4625 H   0  0  0  0  0  0  0  0  0  0  0  0
   11.3510   46.4062   53.0175 H   0  0  0  0  0  0  0  0  0  0  0  0
    9.9339   46.2143   50.9729 H   0  0  0  0  0  0  0  0  0  0  0  0
    7.5314   46.8809   51.0459 H   0  0  0  0  0  0  0  0  0  0  0  0
    6.2112   45.4904   54.4142 H   0  0  0  0  0  0  0  0  0  0  0  0
    4.1406   44.1564   54.8528 H   0  0  0  0  0  0  0  0  0  0  0  0
    0.5530   46.3960   55.1560 H   0  0  0  0  0  0  0  0  0  0  0  0
   -1.0011   44.8465   56.8292 H   0  0  0  0  0  0  0  0  0  0  0  0
   -3.2983   43.8872   56.8759 H   0  0  0  0  0  0  0  0  0  0  0  0
   -4.5099   43.4272   54.7485 H   0  0  0  0  0  0  0  0  0  0  0  0
   -4.6420   43.5313   52.4915 H   0  0  0  0  0  0  0  0  0  0  0  0
   -4.7856   45.3194   51.0381 H   0  0  0  0  0  0  0  0  0  0  0  0
   -3.3192   45.9969   51.7867 H   0  0  0  0  0  0  0  0  0  0  0  0
   -3.5862   44.9122   49.1066 H   0  0  0  0  0  0  0  0  0  0  0  0
   -2.0974   45.4823   49.8360 H   0  0  0  0  0  0  0  0  0  0  0  0
   -2.7300   41.8810   51.7380 H   0  0  0  0  0  0  0  0  0  0  0  0
   -1.1140   44.9071   52.4998 H   0  0  0  0  0  0  0  0  0  0  0  0
    3.7935   48.5422   52.5346 H   0  0  0  0  0  0  0  0  0  0  0  0
    7.9717   48.0047   55.2037 H   0  0  0  0  0  0  0  0  0  0  0  0
  1  2  1  0
  2  3  2  0
  3  4  1  0
  4  5  2  0
  5  6  1  0
  6  7  1  0
  7  8  1  0
  8  9  2  0
  9 10  1  0
 10 11  2  0
 11 12  1  0
 12 13  2  0
 12 14  1  0
 14 15  1  0
 15 16  2  0
 16 17  1  0
 17 18  2  0
 18 19  1  0
 19 20  1  0
 20 21  1  0
 21 22  1  0
 22 23  1  0
 23 24  2  0
 23 25  1  0
 19 26  2  0
 11 27  1  0
 27 28  2  0
  6 29  2  0
 29  2  1  0
 28  8  1  0
 26 15  1  0
 25 20  1  0
  1 30  1  0
  1 31  1  0
  1 32  1  0
  3 33  1  0
  4 34  1  0
  5 35  1  0
  9 36  1  0
 10 37  1  0
 14 38  1  0
 16 39  1  0
 17 40  1  0
 18 41  1  0
 20 42  1  1
 21 43  1  0
 21 44  1  0
 22 45  1  0
 22 46  1  0
 25 47  1  0
 26 48  1  0
 28 49  1  0
 29 50  1  0
M  END
>  <meeko>  (2) 
{"is_sidechain": [false], "free_energy": -9.081, "intermolecular_energy": -11.723, "internal_energy": -0.858}

$$$$
ligand_10_conformer_5_docked
     RDKit          3D

 50 53  0  0  0  0  0  0  0  0999 V2000
    8.8400   47.9170   54.3160 C   0  0  0  0  0  0  0  0  0  0  0  0
    9.0120   47.0390   53.1110 C   0  0  0  0  0  0  0  0  0  0  0  0
   10.2900   46.6140   52.7150 C   0  0  0  0  0  0  0  0  0  0  0  0
   10.4470   45.8390   51.5640 C   0  0  0  0  0  0  0  0  0  0  0  0
    9.3320   45.4810   50.8010 C   0  0  0  0  0  0  0  0  0  0  0  0
    8.0460   45.9070   51.1840 C   0  0  0  0  0  0  0  0  0  0  0  0
    6.9100   45.6200   50.4130 O   0  0  0  0  0  0  0  0  0  0  0  0
    5.6750   45.1830   50.9130 C   0  0  0  0  0  0  0  0  0  0  0  0
    5.5110   43.9220   51.5100 C   0  0  0  0  0  0  0  0  0  0  0  0
    4.2710   43.5520   52.0340 C   0  0  0  0  0  0  0  0  0  0  0  0
    3.1900   44.4470   51.9490 C   0  0  0  0  0  0  0  0  0  0  0  0
    1.8550   44.0860   52.4760 C   0  0  0  0  0  0  0  0  0  0  0  0
    1.7160   43.0300   53.1520 O   0  0  0  0  0  0  0  0  0  0  0  0
    0.7330   44.9610   52.2690 N   0  0  0  0  0  0  0  0  0  0  0  0
   -0.6390   44.5880   52.4920 C   0  0  0  0  0  0  0  0  0  0  0  0
   -1.3020   43.8100   51.5330 C   0  0  0  0  0  0  0  0  0  0  0  0
   -2.6260   43.4140   51.7340 C   0  0  0  0  0  0  0  0  0  0  0  0
   -3.2980   43.7790   52.9010 C   0  0  0  0  0  0  0  0  0  0  0  0
   -2.6480   44.5390   53.8860 C   0  0  0  0  0  0  0  0  0  0  0  0
   -3.3820   44.9330   55.1490 C   0  0  1  0  0  0  0  0  0  0  0  0
   -3.5590   43.7440   56.1320 C   0  0  0  0  0  0  0  0  0  0  0  0
   -2.7670   44.0820   57.4070 C   0  0  0  0  0  0  0  0  0  0  0  0
   -2.2720   45.4490   57.1480 C   0  0  0  0  0  0  0  0  0  0  0  0
   -1.5890   46.1190   57.9700 O   0  0  0  0  0  0  0  0  0  0  0  0
   -2.6230   45.9380   55.8730 N   0  0  0  0  0  0  0  0  0  0  0  0
   -1.3130   44.9370   53.6770 C   0  0  0  0  0  0  0  0  0  0  0  0
    3.3770   45.6620   51.3630 N   0  0  0  0  0  0  0  0  0  0  0  0
    4.5820   46.0490   50.8670 C   0  0  0  0  0  0  0  0  0  0  0  0
    7.8970   46.6970   52.3290 C   0  0  0  0  0  0  0  0  0  0  0  0
    8.9581   47.3144   55.2286 H   0  0  0  0  0  0  0  0  0  0  0  0
    9.5993   48.7127   54.3013 H   0  0  0  0  0  0  0  0  0  0  0  0
    7.8365   48.3674   54.3013 H   0  0  0  0  0  0  0  0  0  0  0  0
   11.1703   46.8923   53.3131 H   0  0  0  0  0  0  0  0  0  0  0  0
   11.4506   45.5095   51.2571 H   0  0  0  0  0  0  0  0  0  0  0  0
    9.4596   44.8647   49.8988 H   0  0  0  0  0  0  0  0  0  0  0  0
    6.3605   43.2254   51.5647 H   0  0  0  0  0  0  0  0  0  0  0  0
    4.1408   42.5686   52.5093 H   0  0  0  0  0  0  0  0  0  0  0  0
    0.9230   45.9520   51.9980 H   0  0  0  0  0  0  0  0  0  0  0  0
   -0.7755   43.5091   50.6152 H   0  0  0  0  0  0  0  0  0  0  0  0
   -3.1406   42.8126   50.9701 H   0  0  0  0  0  0  0  0  0  0  0  0
   -4.3430   43.4695   53.0500 H   0  0  0  0  0  0  0  0  0  0  0  0
   -4.3658   45.3010   54.8224 H   0  0  0  0  0  0  0  0  0  0  0  0
   -4.6237   43.6114   56.3744 H   0  0  0  0  0  0  0  0  0  0  0  0
   -3.1925   42.8094   55.6824 H   0  0  0  0  0  0  0  0  0  0  0  0
   -3.4187   44.0603   58.2929 H   0  0  0  0  0  0  0  0  0  0  0  0
   -1.9597   43.3644   57.6148 H   0  0  0  0  0  0  0  0  0  0  0  0
   -2.3680   46.8810   55.5020 H   0  0  0  0  0  0  0  0  0  0  0  0
   -0.7928   45.5258   54.4469 H   0  0  0  0  0  0  0  0  0  0  0  0
    4.6960   47.0506   50.4269 H   0  0  0  0  0  0  0  0  0  0  0  0
    6.8976   47.0533   52.6192 H   0  0  0  0  0  0  0  0  0  0  0  0
  1  2  1  0
  2  3  2  0
  3  4  1  0
  4  5  2  0
  5  6  1  0
  6  7  1  0
  7  8  1  0
  8  9  2  0
  9 10  1  0
 10 11  2  0
 11 12  1  0
 12 13  2  0
 12 14  1  0
 14 15  1  0
 15 16  2  0
 16 17  1  0
 17 18  2  0
 18 19  1  0
 19 20  1  0
 20 21  1  0
 21 22  1  0
 22 23  1  0
 23 24  2  0
 23 25  1  0
 19 26  2  0
 11 27  1  0
 27 28  2  0
  6 29  2  0
 29  2  1  0
 28  8  1  0
 26 15  1  0
 25 20  1  0
  1 30  1  0
  1 31  1  0
  1 32  1  0
  3 33  1  0
  4 34  1  0
  5 35  1  0
  9 36  1  0
 10 37  1  0
 14 38  1  0
 16 39  1  0
 17 40  1  0
 18 41  1  0
 20 42  1  6
 21 43  1  0
 21 44  1  0
 22 45  1  0
 22 46  1  0
 25 47  1  0
 26 48  1  0
 28 49  1  0
 29 50  1  0
M  END
>  <meeko>  (3) 
{"is_sidechain": [false], "free_energy": -8.493, "intermolecular_energy": -10.887, "internal_energy": -0.934}

$$$$
ligand_10_conformer_5_docked
     RDKit          3D

 50 53  0  0  0  0  0  0  0  0999 V2000
    0.3710   35.4330   46.9570 C   0  0  0  0  0  0  0  0  0  0  0  0
    1.2930   36.2960   46.1460 C   0  0  0  0  0  0  0  0  0  0  0  0
    2.0920   35.7340   45.1380 C   0  0  0  0  0  0  0  0  0  0  0  0
    2.9840   36.5350   44.4210 C   0  0  0  0  0  0  0  0  0  0  0  0
    3.0860   37.9000   44.7050 C   0  0  0  0  0  0  0  0  0  0  0  0
    2.2960   38.4730   45.7180 C   0  0  0  0  0  0  0  0  0  0  0  0
    2.4110   39.8240   46.0740 O   0  0  0  0  0  0  0  0  0  0  0  0
    3.4830   40.3950   46.7740 C   0  0  0  0  0  0  0  0  0  0  0  0
    4.4870   41.1380   46.1340 C   0  0  0  0  0  0  0  0  0  0  0  0
    5.5090   41.7250   46.8840 C   0  0  0  0  0  0  0  0  0  0  0  0
    5.5280   41.5550   48.2790 C   0  0  0  0  0  0  0  0  0  0  0  0
    6.6020   42.1450   49.1080 C   0  0  0  0  0  0  0  0  0  0  0  0
    7.0590   41.4990   50.0900 O   0  0  0  0  0  0  0  0  0  0  0  0
    7.1630   43.4240   48.7650 N   0  0  0  0  0  0  0  0  0  0  0  0
    7.9990   44.2040   49.6380 C   0  0  0  0  0  0  0  0  0  0  0  0
    9.3800   43.9590   49.6650 C   0  0  0  0  0  0  0  0  0  0  0  0
   10.2180   44.7180   50.4850 C   0  0  0  0  0  0  0  0  0  0  0  0
    9.6890   45.7370   51.2770 C   0  0  0  0  0  0  0  0  0  0  0  0
    8.3140   46.0170   51.2500 C   0  0  0  0  0  0  0  0  0  0  0  0
    7.7460   47.1240   52.1120 C   0  0  1  0  0  0  0  0  0  0  0  0
    6.6640   46.6130   53.1020 C   0  0  0  0  0  0  0  0  0  0  0  0
    7.2050   46.8330   54.5250 C   0  0  0  0  0  0  0  0  0  0  0  0
    8.4870   47.5300   54.2980 C   0  0  0  0  0  0  0  0  0  0  0  0
    9.2490   47.9240   55.2230 O   0  0  0  0  0  0  0  0  0  0  0  0
    8.7950   47.7020   52.9330 N   0  0  0  0  0  0  0  0  0  0  0  0
    7.4730   45.2480   50.4230 C   0  0  0  0  0  0  0  0  0  0  0  0
    4.5420   40.8260   48.8730 N   0  0  0  0  0  0  0  0  0  0  0  0
    3.5280   40.2670   48.1640 C   0  0  0  0  0  0  0  0  0  0  0  0
    1.4140   37.6620   46.4430 C   0  0  0  0  0  0  0  0  0  0  0  0
    0.5549   35.6051   48.0278 H   0  0  0  0  0  0  0  0  0  0  0  0
   -0.6726   35.6864   46.7188 H   0  0  0  0  0  0  0  0  0  0  0  0
    0.5549   34.3750   46.7188 H   0  0  0  0  0  0  0  0  0  0  0  0
    2.0155   34.6602   44.9121 H   0  0  0  0  0  0  0  0  0  0  0  0
    3.6075   36.0907   43.6312 H   0  0  0  0  0  0  0  0  0  0  0  0
    3.7862   38.5279   44.1345 H   0  0  0  0  0  0  0  0  0  0  0  0
    4.4692   41.2583   45.0407 H   0  0  0  0  0  0  0  0  0  0  0  0
    6.2926   42.3155   46.3867 H   0  0  0  0  0  0  0  0  0  0  0  0
    7.0080   43.7880   47.7980 H   0  0  0  0  0  0  0  0  0  0  0  0
    9.8059   43.1635   49.0359 H   0  0  0  0  0  0  0  0  0  0  0  0
   11.2982   44.5116   50.5063 H   0  0  0  0  0  0  0  0  0  0  0  0
   10.3538   46.3249   51.9269 H   0  0  0  0  0  0  0  0  0  0  0  0
    7.3051   47.8523   51.4155 H   0  0  0  0  0  0  0  0  0  0  0  0
    5.7301   47.1773   52.9630 H   0  0  0  0  0  0  0  0  0  0  0  0
    6.4485   45.5485   52.9277 H   0  0  0  0  0  0  0  0  0  0  0  0
    6.5173   47.4558   55.1160 H   0  0  0  0  0  0  0  0  0  0  0  0
    7.3188   45.8969   55.0914 H   0  0  0  0  0  0  0  0  0  0  0  0
    9.6540   48.1710   52.5670 H   0  0  0  0  0  0  0  0  0  0  0  0
    6.3951   45.4648   50.3898 H   0  0  0  0  0  0  0  0  0  0  0  0
    2.7371   39.7099   48.6876 H   0  0  0  0  0  0  0  0  0  0  0  0
    0.8109   38.0996   47.2522 H   0  0  0  0  0  0  0  0  0  0  0  0
  1  2  1  0
  2  3  2  0
  3  4  1  0
  4  5  2  0
  5  6  1  0
  6  7  1  0
  7  8  1  0
  8  9  2  0
  9 10  1  0
 10 11  2  0
 11 12  1  0
 12 13  2  0
 12 14  1  0
 14 15  1  0
 15 16  2  0
 16 17  1  0
 17 18  2  0
 18 19  1  0
 19 20  1  0
 20 21  1  0
 21 22  1  0
 22 23  1  0
 23 24  2  0
 23 25  1  0
 19 26  2  0
 11 27  1  0
 27 28  2  0
  6 29  2  0
 29  2  1  0
 28  8  1  0
 26 15  1  0
 25 20  1  0
  1 30  1  0
  1 31  1  0
  1 32  1  0
  3 33  1  0
  4 34  1  0
  5 35  1  0
  9 36  1  0
 10 37  1  0
 14 38  1  0
 16 39  1  0
 17 40  1  0
 18 41  1  0
 20 42  1  6
 21 43  1  0
 21 44  1  0
 22 45  1  0
 22 46  1  0
 25 47  1  0
 26 48  1  0
 28 49  1  0
 29 50  1  0
M  END
>  <meeko>  (4) 
{"is_sidechain": [false], "free_energy": -8.451, "intermolecular_energy": -10.911, "internal_energy": -0.856}

$$$$
ligand_10_conformer_5_docked
     RDKit          3D

 50 53  0  0  0  0  0  0  0  0999 V2000
    0.5840   40.2360   41.0070 C   0  0  0  0  0  0  0  0  0  0  0  0
    0.7570   40.7350   42.4120 C   0  0  0  0  0  0  0  0  0  0  0  0
    0.1410   41.9260   42.8260 C   0  0  0  0  0  0  0  0  0  0  0  0
    0.3480   42.4110   44.1200 C   0  0  0  0  0  0  0  0  0  0  0  0
    1.1680   41.7110   45.0080 C   0  0  0  0  0  0  0  0  0  0  0  0
    1.7970   40.5190   44.6030 C   0  0  0  0  0  0  0  0  0  0  0  0
    2.6740   39.8200   45.4440 O   0  0  0  0  0  0  0  0  0  0  0  0
    3.6390   40.4010   46.2800 C   0  0  0  0  0  0  0  0  0  0  0  0
    4.6850   41.1940   45.7800 C   0  0  0  0  0  0  0  0  0  0  0  0
    5.5940   41.7880   46.6590 C   0  0  0  0  0  0  0  0  0  0  0  0
    5.4570   41.5760   48.0420 C   0  0  0  0  0  0  0  0  0  0  0  0
    6.4090   42.1730   49.0050 C   0  0  0  0  0  0  0  0  0  0  0  0
    6.5500   41.6540   50.1460 O   0  0  0  0  0  0  0  0  0  0  0  0
    7.2100   43.3060   48.6270 N   0  0  0  0  0  0  0  0  0  0  0  0
    7.9490   44.1230   49.5510 C   0  0  0  0  0  0  0  0  0  0  0  0
    9.3400   43.9710   49.6400 C   0  0  0  0  0  0  0  0  0  0  0  0
   10.0860   44.7680   50.5110 C   0  0  0  0  0  0  0  0  0  0  0  0
    9.4530   45.7330   51.2940 C   0  0  0  0  0  0  0  0  0  0  0  0
    8.0640   45.9190   51.2070 C   0  0  0  0  0  0  0  0  0  0  0  0
    7.3830   46.9680   52.0600 C   0  0  1  0  0  0  0  0  0  0  0  0
    6.4010   46.3500   53.0920 C   0  0  0  0  0  0  0  0  0  0  0  0
    6.9470   46.6730   54.4940 C   0  0  0  0  0  0  0  0  0  0  0  0
    8.1230   47.5220   54.2140 C   0  0  0  0  0  0  0  0  0  0  0  0
    8.8520   48.0320   55.1070 O   0  0  0  0  0  0  0  0  0  0  0  0
    8.3710   47.6950   52.8370 N   0  0  0  0  0  0  0  0  0  0  0  0
    7.3170   45.1120   50.3280 C   0  0  0  0  0  0  0  0  0  0  0  0
    4.4350   40.8000   48.4980 N   0  0  0  0  0  0  0  0  0  0  0  0
    3.5280   40.2320   47.6610 C   0  0  0  0  0  0  0  0  0  0  0  0
    1.5990   40.0470   43.3000 C   0  0  0  0  0  0  0  0  0  0  0  0
    0.2237   39.1969   41.0287 H   0  0  0  0  0  0  0  0  0  0  0  0
   -0.1479   40.8669   40.4813 H   0  0  0  0  0  0  0  0  0  0  0  0
    1.5493   40.2785   40.4813 H   0  0  0  0  0  0  0  0  0  0  0  0
   -0.5066   42.4793   42.1299 H   0  0  0  0  0  0  0  0  0  0  0  0
   -0.1357   43.3457   44.4399 H   0  0  0  0  0  0  0  0  0  0  0  0
    1.3227   42.0929   46.0279 H   0  0  0  0  0  0  0  0  0  0  0  0
    4.7885   41.3474   44.6957 H   0  0  0  0  0  0  0  0  0  0  0  0
    6.4100   42.4162   46.2723 H   0  0  0  0  0  0  0  0  0  0  0  0
    7.3150   43.5170   47.6090 H   0  0  0  0  0  0  0  0  0  0  0  0
    9.8476   43.2182   49.0190 H   0  0  0  0  0  0  0  0  0  0  0  0
   11.1757   44.6343   50.5796 H   0  0  0  0  0  0  0  0  0  0  0  0
   10.0454   46.3521   51.9838 H   0  0  0  0  0  0  0  0  0  0  0  0
    6.8356   47.6169   51.3605 H   0  0  0  0  0  0  0  0  0  0  0  0
    5.3997   46.7881   52.9679 H   0  0  0  0  0  0  0  0  0  0  0  0
    6.3179   45.2627   52.9476 H   0  0  0  0  0  0  0  0  0  0  0  0
    6.2011   47.2177   55.0914 H   0  0  0  0  0  0  0  0  0  0  0  0
    7.1946   45.7737   55.0770 H   0  0  0  0  0  0  0  0  0  0  0  0
    9.1530   48.2600   52.4360 H   0  0  0  0  0  0  0  0  0  0  0  0
    6.2294   45.2557   50.2477 H   0  0  0  0  0  0  0  0  0  0  0  0
    2.7013   39.6354   48.0741 H   0  0  0  0  0  0  0  0  0  0  0  0
    2.1074   39.1294   42.9692 H   0  0  0  0  0  0  0  0  0  0  0  0
  1  2  1  0
  2  3  2  0
  3  4  1  0
  4  5  2  0
  5  6  1  0
  6  7  1  0
  7  8  1  0
  8  9  2  0
  9 10  1  0
 10 11  2  0
 11 12  1  0
 12 13  2  0
 12 14  1  0
 14 15  1  0
 15 16  2  0
 16 17  1  0
 17 18  2  0
 18 19  1  0
 19 20  1  0
 20 21  1  0
 21 22  1  0
 22 23  1  0
 23 24  2  0
 23 25  1  0
 19 26  2  0
 11 27  1  0
 27 28  2  0
  6 29  2  0
 29  2  1  0
 28  8  1  0
 26 15  1  0
 25 20  1  0
  1 30  1  0
  1 31  1  0
  1 32  1  0
  3 33  1  0
  4 34  1  0
  5 35  1  0
  9 36  1  0
 10 37  1  0
 14 38  1  0
 16 39  1  0
 17 40  1  0
 18 41  1  0
 20 42  1  6
 21 43  1  0
 21 44  1  0
 22 45  1  0
 22 46  1  0
 25 47  1  0
 26 48  1  0
 28 49  1  0
 29 50  1  0
M  END
>  <meeko>  (5) 
{"is_sidechain": [false], "free_energy": -8.428, "intermolecular_energy": -10.817, "internal_energy": -0.919}

$$$$
