
     RDKit          3D

 40 42  0  0  0  0  0  0  0  0999 V2000
    0.8217   -2.4949   -0.9165 O   0  0  0  0  0  0  0  0  0  0  0  0
    0.7100   -1.2381   -0.9127 C   0  0  0  0  0  0  0  0  0  0  0  0
    1.8875   -0.4194   -0.8108 N   0  0  0  0  0  0  0  0  0  0  0  0
    3.2078   -0.8725   -1.1584 C   0  0  0  0  0  0  0  0  0  0  0  0
    3.4125   -1.8074   -2.1884 C   0  0  0  0  0  0  0  0  0  0  0  0
    4.7056   -2.2152   -2.5223 C   0  0  0  0  0  0  0  0  0  0  0  0
    5.8055   -1.6870   -1.8435 C   0  0  0  0  0  0  0  0  0  0  0  0
    5.6262   -0.7390   -0.8301 C   0  0  0  0  0  0  0  0  0  0  0  0
    4.3200   -0.3298   -0.4947 C   0  0  0  0  0  0  0  0  0  0  0  0
    6.7655   -0.2332   -0.1851 O   0  0  0  0  0  0  0  0  0  0  0  0
    6.7469    0.7533    0.8428 C   0  0  0  0  0  0  0  0  0  0  0  0
    8.0333    0.9444    1.3085 F   0  0  0  0  0  0  0  0  0  0  0  0
    6.2687    1.9499    0.3401 F   0  0  0  0  0  0  0  0  0  0  0  0
   -0.6401   -0.6255   -0.9622 C   0  0  0  0  0  0  0  0  0  0  0  0
   -0.8097    0.7181   -1.3414 C   0  0  0  0  0  0  0  0  0  0  0  0
   -2.0849    1.2860   -1.3806 C   0  0  0  0  0  0  0  0  0  0  0  0
   -3.2065    0.5204   -1.0579 C   0  0  0  0  0  0  0  0  0  0  0  0
   -3.0632   -0.8329   -0.7096 C   0  0  0  0  0  0  0  0  0  0  0  0
   -1.7777   -1.3924   -0.6479 C   0  0  0  0  0  0  0  0  0  0  0  0
   -4.1999   -1.6374   -0.3520 N   0  0  0  0  0  0  0  0  0  0  0  0
   -5.4881   -1.5364   -0.9759 C   0  0  0  0  0  0  0  0  0  0  0  0
   -6.5522   -2.1804   -0.4245 N   0  0  0  0  0  0  0  0  0  0  0  0
   -7.7798   -2.1304   -1.0042 C   0  0  0  0  0  0  0  0  0  0  0  0
   -7.9609   -1.4179   -2.1885 C   0  0  0  0  0  0  0  0  0  0  0  0
   -6.8597   -0.7738   -2.7499 C   0  0  0  0  0  0  0  0  0  0  0  0
   -5.6484   -0.8480   -2.1400 N   0  0  0  0  0  0  0  0  0  0  0  0
    1.7968    0.5156   -0.3531 H   0  0  0  0  0  0  0  0  0  0  0  0
    2.5779   -2.2060   -2.7497 H   0  0  0  0  0  0  0  0  0  0  0  0
    4.8564   -2.9367   -3.3150 H   0  0  0  0  0  0  0  0  0  0  0  0
    6.8037   -2.0095   -2.1113 H   0  0  0  0  0  0  0  0  0  0  0  0
    4.1561    0.4006    0.2857 H   0  0  0  0  0  0  0  0  0  0  0  0
    6.1101    0.4155    1.6875 H   0  0  0  0  0  0  0  0  0  0  0  0
    0.0378    1.3309   -1.6189 H   0  0  0  0  0  0  0  0  0  0  0  0
   -2.2039    2.3253   -1.6590 H   0  0  0  0  0  0  0  0  0  0  0  0
   -4.1801    0.9921   -1.0605 H   0  0  0  0  0  0  0  0  0  0  0  0
   -1.6700   -2.4299   -0.3549 H   0  0  0  0  0  0  0  0  0  0  0  0
   -4.0625   -2.4001    0.3496 H   0  0  0  0  0  0  0  0  0  0  0  0
   -8.6134   -2.6461   -0.5467 H   0  0  0  0  0  0  0  0  0  0  0  0
   -8.9324   -1.3694   -2.6629 H   0  0  0  0  0  0  0  0  0  0  0  0
   -6.9660   -0.2176   -3.6716 H   0  0  0  0  0  0  0  0  0  0  0  0
  1  2  2  0
  2  3  1  0
  3  4  1  0
  4  5  2  0
  5  6  1  0
  6  7  2  0
  7  8  1  0
  8  9  2  0
  8 10  1  0
 10 11  1  0
 11 12  1  0
 11 13  1  0
  2 14  1  0
 14 15  2  0
 15 16  1  0
 16 17  2  0
 17 18  1  0
 18 19  2  0
 18 20  1  0
 20 21  1  0
 21 22  2  0
 22 23  1  0
 23 24  2  0
 24 25  1  0
 25 26  2  0
  4  9  1  0
 14 19  1  0
 21 26  1  0
  3 27  1  0
  5 28  1  0
  6 29  1  0
  7 30  1  0
  9 31  1  0
 11 32  1  0
 15 33  1  0
 16 34  1  0
 17 35  1  0
 19 36  1  0
 20 37  1  0
 23 38  1  0
 24 39  1  0
 25 40  1  0
M  END
$$$$
