
     RDKit          3D

 42 46  0  0  0  0  0  0  0  0999 V2000
    0.9868   -6.9756   -1.6144 C   0  0  0  0  0  0  0  0  0  0  0  0
    1.3566   -6.4499   -2.8570 C   0  0  0  0  0  0  0  0  0  0  0  0
    1.2542   -5.0757   -3.0987 C   0  0  0  0  0  0  0  0  0  0  0  0
    0.7832   -4.2220   -2.0945 C   0  0  0  0  0  0  0  0  0  0  0  0
    0.6811   -2.8852   -2.3260 N   0  0  0  0  0  0  0  0  0  0  0  0
    0.2266   -2.0216   -1.3763 C   0  0  0  0  0  0  0  0  0  0  0  0
   -0.1508   -2.5096   -0.1158 C   0  0  0  0  0  0  0  0  0  0  0  0
   -0.0596   -3.8775    0.1503 C   0  0  0  0  0  0  0  0  0  0  0  0
    0.4097   -4.7505   -0.8387 C   0  0  0  0  0  0  0  0  0  0  0  0
    0.5138   -6.1304   -0.6051 C   0  0  0  0  0  0  0  0  0  0  0  0
    0.1392   -0.5864   -1.6832 C   0  0  0  0  0  0  0  0  0  0  0  0
    0.4856   -0.0442   -2.8681 N   0  0  0  0  0  0  0  0  0  0  0  0
    0.2718    1.2586   -2.7612 N   0  0  0  0  0  0  0  0  0  0  0  0
   -0.1957    1.4545   -1.5153 C   0  0  0  0  0  0  0  0  0  0  0  0
   -0.5485    2.7387   -0.9938 N   0  0  0  0  0  0  0  0  0  0  0  0
   -1.1407    2.9020    0.3360 C   0  0  0  0  0  0  0  0  0  0  0  0
   -2.6696    3.0210    0.1906 C   0  0  0  0  0  0  0  0  0  0  0  0
   -3.3043    3.4218    1.5222 C   0  0  0  0  0  0  0  0  0  0  0  0
   -2.7327    4.6427    1.9897 O   0  0  0  0  0  0  0  0  0  0  0  0
   -1.3689    4.9241    1.8513 C   0  0  0  0  0  0  0  0  0  0  0  0
   -0.8242    6.0286    2.5151 C   0  0  0  0  0  0  0  0  0  0  0  0
    0.5402    6.3100    2.4078 C   0  0  0  0  0  0  0  0  0  0  0  0
    1.3663    5.4852    1.6404 C   0  0  0  0  0  0  0  0  0  0  0  0
    0.8289    4.3838    0.9675 C   0  0  0  0  0  0  0  0  0  0  0  0
   -0.5496    4.1108    1.0390 C   0  0  0  0  0  0  0  0  0  0  0  0
   -0.2821    0.3312   -0.8451 O   0  0  0  0  0  0  0  0  0  0  0  0
    1.0623   -8.0400   -1.4354 H   0  0  0  0  0  0  0  0  0  0  0  0
    1.7206   -7.1091   -3.6346 H   0  0  0  0  0  0  0  0  0  0  0  0
    1.5409   -4.6778   -4.0643 H   0  0  0  0  0  0  0  0  0  0  0  0
   -0.5141   -1.8395    0.6536 H   0  0  0  0  0  0  0  0  0  0  0  0
   -0.3535   -4.2512    1.1242 H   0  0  0  0  0  0  0  0  0  0  0  0
    0.2266   -6.5527    0.3495 H   0  0  0  0  0  0  0  0  0  0  0  0
   -0.4996    3.5649   -1.6330 H   0  0  0  0  0  0  0  0  0  0  0  0
   -0.9131    2.0134    0.9659 H   0  0  0  0  0  0  0  0  0  0  0  0
   -2.9182    3.7925   -0.5725 H   0  0  0  0  0  0  0  0  0  0  0  0
   -3.0930    2.0485   -0.1455 H   0  0  0  0  0  0  0  0  0  0  0  0
   -3.1280    2.6232    2.2754 H   0  0  0  0  0  0  0  0  0  0  0  0
   -4.4001    3.5549    1.3971 H   0  0  0  0  0  0  0  0  0  0  0  0
   -1.4563    6.6606    3.1266 H   0  0  0  0  0  0  0  0  0  0  0  0
    0.9599    7.1612    2.9293 H   0  0  0  0  0  0  0  0  0  0  0  0
    2.4252    5.6978    1.5709 H   0  0  0  0  0  0  0  0  0  0  0  0
    1.4862    3.7494    0.3853 H   0  0  0  0  0  0  0  0  0  0  0  0
  1  2  2  0
  2  3  1  0
  3  4  2  0
  4  5  1  0
  5  6  2  0
  6  7  1  0
  7  8  2  0
  8  9  1  0
  9 10  2  0
  6 11  1  0
 11 12  2  0
 12 13  1  0
 13 14  2  0
 14 15  1  0
 15 16  1  0
 16 17  1  0
 17 18  1  0
 18 19  1  0
 19 20  1  0
 20 21  2  0
 21 22  1  0
 22 23  2  0
 23 24  1  0
 24 25  2  0
 14 26  1  0
  1 10  1  0
  4  9  1  0
 26 11  1  0
 25 16  1  0
 20 25  1  0
  1 27  1  0
  2 28  1  0
  3 29  1  0
  7 30  1  0
  8 31  1  0
 10 32  1  0
 15 33  1  0
 16 34  1  0
 17 35  1  0
 17 36  1  0
 18 37  1  0
 18 38  1  0
 21 39  1  0
 22 40  1  0
 23 41  1  0
 24 42  1  0
M  END
$$$$
