
     RDKit          3D

 56 57  0  0  0  0  0  0  0  0999 V2000
   -2.3902    4.2011    2.5326 C   0  0  0  0  0  0  0  0  0  0  0  0
   -1.1571    3.5989    2.1524 O   0  0  0  0  0  0  0  0  0  0  0  0
   -0.7366    2.3236    2.5592 C   0  0  0  0  0  0  0  0  0  0  0  0
   -1.5075    1.5098    3.4124 C   0  0  0  0  0  0  0  0  0  0  0  0
   -1.0413    0.2371    3.7968 C   0  0  0  0  0  0  0  0  0  0  0  0
    0.1938   -0.2127    3.3186 C   0  0  0  0  0  0  0  0  0  0  0  0
    0.9630    0.5880    2.4661 C   0  0  0  0  0  0  0  0  0  0  0  0
    0.4964    1.8546    2.0942 C   0  0  0  0  0  0  0  0  0  0  0  0
    2.4975   -0.0161    1.8472 S   0  0  0  0  0  0  0  0  0  0  0  0
    3.5339    0.0993    2.9288 O   0  0  0  0  0  0  0  0  0  0  0  0
    2.9455    0.7835    0.6553 O   0  0  0  0  0  0  0  0  0  0  0  0
    2.3349   -1.6813    1.3831 N   0  0  0  0  0  0  0  0  0  0  0  0
    1.3440   -2.1699    0.4551 C   0  0  0  0  0  0  0  0  0  0  0  0
    0.5000   -1.2852   -0.2452 C   0  0  0  0  0  0  0  0  0  0  0  0
   -0.4617   -1.7686   -1.1404 C   0  0  0  0  0  0  0  0  0  0  0  0
   -0.5839   -3.1440   -1.3486 C   0  0  0  0  0  0  0  0  0  0  0  0
    0.2477   -4.0339   -0.6692 C   0  0  0  0  0  0  0  0  0  0  0  0
    1.2158   -3.5590    0.2379 C   0  0  0  0  0  0  0  0  0  0  0  0
    2.0606   -4.4367    0.9377 O   0  0  0  0  0  0  0  0  0  0  0  0
    2.0368   -5.8556    0.8135 C   0  0  0  0  0  0  0  0  0  0  0  0
   -1.5184   -0.6581   -2.0084 S   0  0  0  0  0  0  0  0  0  0  0  0
   -2.9312   -1.1256   -1.8000 O   0  0  0  0  0  0  0  0  0  0  0  0
   -1.4093    0.7274   -1.4330 O   0  0  0  0  0  0  0  0  0  0  0  0
   -1.2042   -0.6246   -3.7293 N   0  0  0  0  0  0  0  0  0  0  0  0
    0.1690   -0.2569   -4.1639 C   0  0  0  0  0  0  0  0  0  0  0  0
    1.1531   -1.4159   -3.8999 C   0  0  0  0  0  0  0  0  0  0  0  0
    0.1287   -0.0223   -5.6910 C   0  0  0  0  0  0  0  0  0  0  0  0
    0.6799    1.0382   -3.4938 C   0  0  0  0  0  0  0  0  0  0  0  0
   -1.7715   -0.6073    4.6477 O   0  0  0  0  0  0  0  0  0  0  0  0
   -3.0400   -0.2840    5.2087 C   0  0  0  0  0  0  0  0  0  0  0  0
   -2.4537    5.2129    2.0823 H   0  0  0  0  0  0  0  0  0  0  0  0
   -2.4431    4.3009    3.6373 H   0  0  0  0  0  0  0  0  0  0  0  0
   -3.2414    3.5927    2.1614 H   0  0  0  0  0  0  0  0  0  0  0  0
   -2.4610    1.8640    3.7750 H   0  0  0  0  0  0  0  0  0  0  0  0
    0.5519   -1.1930    3.6088 H   0  0  0  0  0  0  0  0  0  0  0  0
    1.0857    2.4792    1.4354 H   0  0  0  0  0  0  0  0  0  0  0  0
    2.9853   -2.3534    1.8470 H   0  0  0  0  0  0  0  0  0  0  0  0
    0.5926   -0.2187   -0.1158 H   0  0  0  0  0  0  0  0  0  0  0  0
   -1.3203   -3.5276   -2.0442 H   0  0  0  0  0  0  0  0  0  0  0  0
    0.1285   -5.0924   -0.8564 H   0  0  0  0  0  0  0  0  0  0  0  0
    2.2624   -6.1519   -0.2330 H   0  0  0  0  0  0  0  0  0  0  0  0
    1.0441   -6.2497    1.1184 H   0  0  0  0  0  0  0  0  0  0  0  0
    2.8100   -6.2897    1.4795 H   0  0  0  0  0  0  0  0  0  0  0  0
   -1.8863    0.0635   -4.1261 H   0  0  0  0  0  0  0  0  0  0  0  0
    2.0906   -1.2802   -4.4818 H   0  0  0  0  0  0  0  0  0  0  0  0
    0.6970   -2.3863   -4.1917 H   0  0  0  0  0  0  0  0  0  0  0  0
    1.4578   -1.4656   -2.8386 H   0  0  0  0  0  0  0  0  0  0  0  0
    1.1382    0.2192   -6.0899 H   0  0  0  0  0  0  0  0  0  0  0  0
   -0.2455   -0.9310   -6.2114 H   0  0  0  0  0  0  0  0  0  0  0  0
   -0.5477    0.8236   -5.9409 H   0  0  0  0  0  0  0  0  0  0  0  0
    1.6219    1.3812   -3.9745 H   0  0  0  0  0  0  0  0  0  0  0  0
    0.9084    0.8761   -2.4203 H   0  0  0  0  0  0  0  0  0  0  0  0
   -0.0751    1.8482   -3.5880 H   0  0  0  0  0  0  0  0  0  0  0  0
   -2.9558    0.6218    5.8454 H   0  0  0  0  0  0  0  0  0  0  0  0
   -3.7836   -0.1166    4.4005 H   0  0  0  0  0  0  0  0  0  0  0  0
   -3.3845   -1.1300    5.8384 H   0  0  0  0  0  0  0  0  0  0  0  0
  1  2  1  0
  2  3  1  0
  3  4  2  0
  4  5  1  0
  5  6  2  0
  6  7  1  0
  7  8  2  0
  7  9  1  0
  9 10  2  0
  9 11  2  0
  9 12  1  0
 12 13  1  0
 13 14  2  0
 14 15  1  0
 15 16  2  0
 16 17  1  0
 17 18  2  0
 18 19  1  0
 19 20  1  0
 15 21  1  0
 21 22  2  0
 21 23  2  0
 21 24  1  0
 24 25  1  0
 25 26  1  0
 25 27  1  0
 25 28  1  0
  5 29  1  0
 29 30  1  0
  8  3  1  0
 13 18  1  0
  1 31  1  0
  1 32  1  0
  1 33  1  0
  4 34  1  0
  6 35  1  0
  8 36  1  0
 12 37  1  0
 14 38  1  0
 16 39  1  0
 17 40  1  0
 20 41  1  0
 20 42  1  0
 20 43  1  0
 24 44  1  0
 26 45  1  0
 26 46  1  0
 26 47  1  0
 27 48  1  0
 27 49  1  0
 27 50  1  0
 28 51  1  0
 28 52  1  0
 28 53  1  0
 30 54  1  0
 30 55  1  0
 30 56  1  0
M  END
$$$$
