
     RDKit          3D

  0  0  0  0  0  0  0  0  0  0999 V3000
M  V30 BEGIN CTAB
M  V30 COUNTS 39 41 0 0 0
M  V30 BEGIN ATOM
M  V30 1 O 2.026128 -0.098785 -1.100527 0
M  V30 2 C 1.326229 -1.089906 -0.754474 0
M  V30 3 N 0.271149 -0.917648 0.205404 0
M  V30 4 C -0.213609 0.411785 0.603138 0 CFG=2
M  V30 5 C -1.065707 0.329118 1.885017 0
M  V30 6 C -2.366933 -0.457528 1.684442 0
M  V30 7 C -3.067670 -0.085657 0.412182 0
M  V30 8 O -4.290189 -0.359642 0.281391 0
M  V30 9 N -2.357411 0.508963 -0.682000 0
M  V30 10 C -1.008156 1.069328 -0.554729 0 CFG=1
M  V30 11 C -1.054208 2.580516 -0.405974 0
M  V30 12 C 0.005162 3.353908 -0.915476 0
M  V30 13 C 0.007251 4.743560 -0.763552 0
M  V30 14 C -1.041384 5.376374 -0.092981 0
M  V30 15 C -2.091844 4.620112 0.431046 0
M  V30 16 C -2.099118 3.229980 0.281956 0
M  V30 17 C 1.626074 -2.423646 -1.322736 0
M  V30 18 C 2.942763 -2.750794 -1.685829 0
M  V30 19 C 3.233322 -4.006805 -2.219880 0
M  V30 20 C 2.202099 -4.928032 -2.399549 0
M  V30 21 N 0.927951 -4.596031 -2.064698 0
M  V30 22 C 0.615256 -3.381487 -1.538001 0
M  V30 23 F -0.684876 -3.098867 -1.274032 0
M  V30 24 H -0.073612 -1.765907 0.707167 0
M  V30 25 H 0.673084 1.041585 0.841907 0
M  V30 26 H -0.472228 -0.150952 2.693255 0
M  V30 27 H -1.309789 1.355862 2.232683 0
M  V30 28 H -3.040207 -0.262452 2.546987 0
M  V30 29 H -2.155941 -1.547170 1.667270 0
M  V30 30 H -2.878796 0.688489 -1.569959 0
M  V30 31 H -0.478644 0.849670 -1.507874 0
M  V30 32 H 0.832480 2.879238 -1.428723 0
M  V30 33 H 0.824918 5.329666 -1.162794 0
M  V30 34 H -1.037412 6.452239 0.025136 0
M  V30 35 H -2.900178 5.111151 0.957373 0
M  V30 36 H -2.919219 2.668390 0.707716 0
M  V30 37 H 3.747863 -2.040440 -1.543004 0
M  V30 38 H 4.249039 -4.263895 -2.491390 0
M  V30 39 H 2.412690 -5.905067 -2.813475 0
M  V30 END ATOM
M  V30 BEGIN BOND
M  V30 1 2 1 2
M  V30 2 1 2 3
M  V30 3 1 3 4
M  V30 4 1 4 5
M  V30 5 1 5 6
M  V30 6 1 6 7
M  V30 7 2 7 8
M  V30 8 1 7 9
M  V30 9 1 9 10
M  V30 10 1 10 11
M  V30 11 2 11 12
M  V30 12 1 12 13
M  V30 13 2 13 14
M  V30 14 1 14 15
M  V30 15 2 15 16
M  V30 16 1 2 17
M  V30 17 2 17 18
M  V30 18 1 18 19
M  V30 19 2 19 20
M  V30 20 1 20 21
M  V30 21 2 21 22
M  V30 22 1 22 23
M  V30 23 1 10 4
M  V30 24 1 11 16
M  V30 25 1 17 22
M  V30 26 1 3 24
M  V30 27 1 4 25 CFG=1
M  V30 28 1 5 26
M  V30 29 1 5 27
M  V30 30 1 6 28
M  V30 31 1 6 29
M  V30 32 1 9 30
M  V30 33 1 10 31 CFG=3
M  V30 34 1 12 32
M  V30 35 1 13 33
M  V30 36 1 14 34
M  V30 37 1 15 35
M  V30 38 1 16 36
M  V30 39 1 18 37
M  V30 40 1 19 38
M  V30 41 1 20 39
M  V30 END BOND
M  V30 BEGIN COLLECTION
M  V30 MDLV30/STERAC1 ATOMS=(2 4 10)
M  V30 END COLLECTION
M  V30 END CTAB
M  END
>  <_CXSMILES_Data>  (1) 
|&1:3,9,r|

$$$$
