
     RDKit          3D

 38 40  0  0  0  0  0  0  0  0999 V2000
    2.5156   -2.8312    1.4181 O   0  0  0  0  0  0  0  0  0  0  0  0
    1.8205   -2.1401    0.6238 C   0  0  0  0  0  0  0  0  0  0  0  0
    0.3880   -2.2378    0.6644 N   0  0  0  0  0  0  0  0  0  0  0  0
   -0.3269   -2.8305    1.7948 C   0  0  0  0  0  0  0  0  0  0  0  0
   -0.2436   -1.9322    3.0377 C   0  0  0  0  0  0  0  0  0  0  0  0
   -1.0173   -0.6493    2.8907 C   0  0  0  0  0  0  0  0  0  0  0  0
   -1.5222    0.0461    3.9861 C   0  0  0  0  0  0  0  0  0  0  0  0
   -2.2237    1.4626    3.4153 S   0  0  0  0  0  0  0  0  0  0  0  0
   -1.8510    1.1442    1.8030 C   0  0  0  0  0  0  0  0  0  0  0  0
   -1.1908   -0.0299    1.6900 N   0  0  0  0  0  0  0  0  0  0  0  0
   -2.1728    2.0129    0.6486 C   0  0  0  0  0  0  0  0  0  0  0  0
   -1.9468    1.5563   -0.6632 C   0  0  0  0  0  0  0  0  0  0  0  0
   -2.2367    2.3753   -1.7585 C   0  0  0  0  0  0  0  0  0  0  0  0
   -2.7581    3.6551   -1.5578 C   0  0  0  0  0  0  0  0  0  0  0  0
   -2.9922    4.1176   -0.2610 C   0  0  0  0  0  0  0  0  0  0  0  0
   -2.7027    3.3031    0.8384 C   0  0  0  0  0  0  0  0  0  0  0  0
    2.4936   -1.2463   -0.3470 C   0  0  0  0  0  0  0  0  0  0  0  0
    3.8213   -1.4974   -0.7385 C   0  0  0  0  0  0  0  0  0  0  0  0
    4.4629   -0.6517   -1.6489 C   0  0  0  0  0  0  0  0  0  0  0  0
    3.7911    0.4565   -2.1708 C   0  0  0  0  0  0  0  0  0  0  0  0
    4.4182    1.2746   -3.0519 F   0  0  0  0  0  0  0  0  0  0  0  0
    2.4764    0.7240   -1.7786 C   0  0  0  0  0  0  0  0  0  0  0  0
    1.8265    1.8071   -2.2724 F   0  0  0  0  0  0  0  0  0  0  0  0
    1.8312   -0.1199   -0.8692 C   0  0  0  0  0  0  0  0  0  0  0  0
   -0.1712   -1.9273   -0.1615 H   0  0  0  0  0  0  0  0  0  0  0  0
    0.1063   -3.8277    2.0252 H   0  0  0  0  0  0  0  0  0  0  0  0
   -1.3938   -2.9858    1.5217 H   0  0  0  0  0  0  0  0  0  0  0  0
   -0.6496   -2.5008    3.9024 H   0  0  0  0  0  0  0  0  0  0  0  0
    0.8163   -1.6911    3.2650 H   0  0  0  0  0  0  0  0  0  0  0  0
   -1.4627   -0.2618    5.0216 H   0  0  0  0  0  0  0  0  0  0  0  0
   -1.5550    0.5637   -0.8441 H   0  0  0  0  0  0  0  0  0  0  0  0
   -2.0589    2.0160   -2.7639 H   0  0  0  0  0  0  0  0  0  0  0  0
   -2.9824    4.2876   -2.4069 H   0  0  0  0  0  0  0  0  0  0  0  0
   -3.3969    5.1096   -0.1067 H   0  0  0  0  0  0  0  0  0  0  0  0
   -2.8879    3.6881    1.8326 H   0  0  0  0  0  0  0  0  0  0  0  0
    4.3592   -2.3529   -0.3491 H   0  0  0  0  0  0  0  0  0  0  0  0
    5.4824   -0.8571   -1.9491 H   0  0  0  0  0  0  0  0  0  0  0  0
    0.8257    0.1250   -0.5578 H   0  0  0  0  0  0  0  0  0  0  0  0
  1  2  2  0
  2  3  1  0
  3  4  1  0
  4  5  1  0
  5  6  1  0
  6  7  2  0
  7  8  1  0
  8  9  1  0
  9 10  2  0
  9 11  1  0
 11 12  2  0
 12 13  1  0
 13 14  2  0
 14 15  1  0
 15 16  2  0
  2 17  1  0
 17 18  2  0
 18 19  1  0
 19 20  2  0
 20 21  1  0
 20 22  1  0
 22 23  1  0
 22 24  2  0
 10  6  1  0
 11 16  1  0
 24 17  1  0
  3 25  1  0
  4 26  1  0
  4 27  1  0
  5 28  1  0
  5 29  1  0
  7 30  1  0
 12 31  1  0
 13 32  1  0
 14 33  1  0
 15 34  1  0
 16 35  1  0
 18 36  1  0
 19 37  1  0
 24 38  1  0
M  END
$$$$
