
     RDKit          3D

 55 60  0  0  0  0  0  0  0  0999 V2000
   -7.0915    0.8371   -0.0729 C   0  0  0  0  0  0  0  0  0  0  0  0
   -6.7660    2.1189    0.6225 C   0  0  0  0  0  0  0  0  0  0  0  0
   -7.6351    3.1799    0.8666 C   0  0  0  0  0  0  0  0  0  0  0  0
   -6.9777    4.2006    1.4646 N   0  0  0  0  0  0  0  0  0  0  0  0
   -5.7055    3.7878    1.5847 C   0  0  0  0  0  0  0  0  0  0  0  0
   -4.6798    4.5061    2.1008 N   0  0  0  0  0  0  0  0  0  0  0  0
   -3.4286    3.9578    2.1260 C   0  0  0  0  0  0  0  0  0  0  0  0
   -3.1913    2.6509    1.6148 C   0  0  0  0  0  0  0  0  0  0  0  0
   -4.2779    1.9290    1.0643 C   0  0  0  0  0  0  0  0  0  0  0  0
   -5.5315    2.5338    1.0786 C   0  0  0  0  0  0  0  0  0  0  0  0
   -1.8187    2.0871    1.6391 C   0  0  0  0  0  0  0  0  0  0  0  0
   -0.8362    2.8660    1.7881 O   0  0  0  0  0  0  0  0  0  0  0  0
   -1.5840    0.6756    1.5120 N   0  0  0  0  0  0  0  0  0  0  0  0
   -0.2222    0.1542    1.4199 C   0  0  1  0  0  0  0  0  0  0  0  0
    0.2754   -0.4447    2.7277 C   0  0  2  0  0  0  0  0  0  0  0  0
    1.7854   -0.5519    2.8821 C   0  0  0  0  0  0  0  0  0  0  0  0
    2.2367   -1.4466    1.8304 N   0  0  0  0  0  0  0  0  0  0  0  0
    1.1457   -1.9972    1.0392 C   0  0  0  0  0  0  0  0  0  0  0  0
   -0.1281   -1.3593    1.5764 C   0  0  2  0  0  0  0  0  0  0  0  0
    3.5927   -1.9102    1.7394 C   0  0  0  0  0  0  0  0  0  0  0  0
    4.2547   -2.0954    2.7965 O   0  0  0  0  0  0  0  0  0  0  0  0
    4.2261   -2.1774    0.4312 C   0  0  0  0  0  0  0  0  0  0  0  0
    5.1919   -3.2092    0.3065 C   0  0  0  0  0  0  0  0  0  0  0  0
    5.8231   -3.4590   -0.9262 C   0  0  0  0  0  0  0  0  0  0  0  0
    5.4728   -2.6596   -2.0095 C   0  0  0  0  0  0  0  0  0  0  0  0
    5.9806   -2.7048   -3.2551 N   0  0  0  0  0  0  0  0  0  0  0  0
    5.3223   -1.6952   -3.8825 C   0  0  0  0  0  0  0  0  0  0  0  0
    5.5859   -1.3400   -5.2409 N   0  0  0  0  0  0  0  0  0  0  0  0
    4.4313   -1.0436   -3.0895 N   0  0  0  0  0  0  0  0  0  0  0  0
    3.6207    0.1253   -3.4266 C   0  0  0  0  0  0  0  0  0  0  0  0
    4.5504   -1.6580   -1.8990 C   0  0  0  0  0  0  0  0  0  0  0  0
    3.9120   -1.3748   -0.6895 C   0  0  0  0  0  0  0  0  0  0  0  0
   -6.7385    0.8839   -1.1222 H   0  0  0  0  0  0  0  0  0  0  0  0
   -6.5932   -0.0086    0.4439 H   0  0  0  0  0  0  0  0  0  0  0  0
   -8.1886    0.6629   -0.0629 H   0  0  0  0  0  0  0  0  0  0  0  0
   -8.6872    3.2060    0.6138 H   0  0  0  0  0  0  0  0  0  0  0  0
   -7.3757    5.1216    1.7583 H   0  0  0  0  0  0  0  0  0  0  0  0
   -2.6170    4.5363    2.5463 H   0  0  0  0  0  0  0  0  0  0  0  0
   -4.1569    0.9520    0.6158 H   0  0  0  0  0  0  0  0  0  0  0  0
   -2.3839    0.0074    1.5536 H   0  0  0  0  0  0  0  0  0  0  0  0
    0.4977    0.6458    0.7280 H   0  0  0  0  0  0  0  0  0  0  0  0
   -0.4091   -0.4873    3.6026 H   0  0  0  0  0  0  0  0  0  0  0  0
    2.2599    0.4460    2.7682 H   0  0  0  0  0  0  0  0  0  0  0  0
    2.0272   -0.9789    3.8782 H   0  0  0  0  0  0  0  0  0  0  0  0
    1.2648   -1.7546   -0.0370 H   0  0  0  0  0  0  0  0  0  0  0  0
    1.1004   -3.0992    1.1746 H   0  0  0  0  0  0  0  0  0  0  0  0
   -1.0412   -1.9588    1.7802 H   0  0  0  0  0  0  0  0  0  0  0  0
    5.4553   -3.8197    1.1622 H   0  0  0  0  0  0  0  0  0  0  0  0
    6.5678   -4.2368   -1.0220 H   0  0  0  0  0  0  0  0  0  0  0  0
    5.1239   -0.5190   -5.6896 H   0  0  0  0  0  0  0  0  0  0  0  0
    6.2903   -1.8779   -5.7901 H   0  0  0  0  0  0  0  0  0  0  0  0
    2.7586    0.2206   -2.7341 H   0  0  0  0  0  0  0  0  0  0  0  0
    4.2443    1.0393   -3.3628 H   0  0  0  0  0  0  0  0  0  0  0  0
    3.2121    0.0262   -4.4538 H   0  0  0  0  0  0  0  0  0  0  0  0
    3.2250   -0.5438   -0.6024 H   0  0  0  0  0  0  0  0  0  0  0  0
  1  2  1  0
  2  3  2  0
  3  4  1  0
  4  5  1  0
  5  6  2  0
  6  7  1  0
  7  8  2  0
  8  9  1  0
  9 10  2  0
  8 11  1  0
 11 12  2  0
 11 13  1  0
 13 14  1  0
 14 15  1  0
 15 16  1  0
 16 17  1  0
 17 18  1  0
 18 19  1  0
 17 20  1  0
 20 21  2  0
 20 22  1  0
 22 23  2  0
 23 24  1  0
 24 25  2  0
 25 26  1  0
 26 27  2  0
 27 28  1  0
 27 29  1  0
 29 30  1  0
 29 31  1  0
 31 32  2  0
 10  2  1  0
  5 10  1  0
 19 14  1  0
 19 15  1  0
 22 32  1  0
 25 31  1  0
  1 33  1  0
  1 34  1  0
  1 35  1  0
  3 36  1  0
  4 37  1  0
  7 38  1  0
  9 39  1  0
 13 40  1  0
 14 41  1  6
 15 42  1  1
 16 43  1  0
 16 44  1  0
 18 45  1  0
 18 46  1  0
 19 47  1  1
 23 48  1  0
 24 49  1  0
 28 50  1  0
 28 51  1  0
 30 52  1  0
 30 53  1  0
 30 54  1  0
 32 55  1  0
M  END
$$$$
