
     RDKit          3D

 55 58  0  0  0  0  0  0  0  0999 V2000
   -3.2834    0.7486   -2.4134 O   0  0  0  0  0  0  0  0  0  0  0  0
   -2.4463    0.5402   -1.4925 C   0  0  0  0  0  0  0  0  0  0  0  0
   -2.8906   -0.0122   -0.2422 N   0  0  0  0  0  0  0  0  0  0  0  0
   -4.2438   -0.5592   -0.0754 C   0  0  0  0  0  0  0  0  0  0  0  0
   -4.3604   -1.9192   -0.7681 C   0  0  0  0  0  0  0  0  0  0  0  0
   -4.1106   -2.9781    0.3182 C   0  0  0  0  0  0  0  0  0  0  0  0
   -5.2639   -3.9542    0.5279 C   0  0  0  0  0  0  0  0  0  0  0  0
   -5.2938   -4.2681    1.9530 N   0  0  0  0  0  0  0  0  0  0  0  0
   -4.7969   -3.0791    2.6467 C   0  0  0  0  0  0  0  0  0  0  0  0
   -3.9909   -2.2512    1.6401 C   0  0  0  0  0  0  0  0  0  0  0  0
   -4.5416   -0.8467    1.3935 C   0  0  0  0  0  0  0  0  0  0  0  0
   -1.0210    0.8813   -1.7147 C   0  0  0  0  0  0  0  0  0  0  0  0
    0.0003    0.2358   -0.9954 C   0  0  0  0  0  0  0  0  0  0  0  0
    1.3416    0.5598   -1.2199 C   0  0  0  0  0  0  0  0  0  0  0  0
    1.6878    1.5367   -2.1723 C   0  0  0  0  0  0  0  0  0  0  0  0
    0.6724    2.1660   -2.8995 C   0  0  0  0  0  0  0  0  0  0  0  0
   -0.6687    1.8422   -2.6778 C   0  0  0  0  0  0  0  0  0  0  0  0
    3.0170    1.9051   -2.4371 O   0  0  0  0  0  0  0  0  0  0  0  0
    4.1615    1.4777   -1.6963 C   0  0  0  0  0  0  0  0  0  0  0  0
    4.2333    2.1841   -0.3291 C   0  0  0  0  0  0  0  0  0  0  0  0
    5.4592    1.7023    0.4675 C   0  0  0  0  0  0  0  0  0  0  0  0
    5.4854    2.2991    1.8902 C   0  0  0  0  0  0  0  0  0  0  0  0
    4.7987    3.6756    1.9931 C   0  0  0  0  0  0  0  0  0  0  0  0
    4.9182    4.4645    0.6859 C   0  0  0  0  0  0  0  0  0  0  0  0
    4.2513    3.7267   -0.4937 C   0  0  0  0  0  0  0  0  0  0  0  0
   -2.2526    0.0359    0.5839 H   0  0  0  0  0  0  0  0  0  0  0  0
   -4.9901    0.1623   -0.4767 H   0  0  0  0  0  0  0  0  0  0  0  0
   -3.6205   -2.0269   -1.5910 H   0  0  0  0  0  0  0  0  0  0  0  0
   -5.3726   -2.0156   -1.2176 H   0  0  0  0  0  0  0  0  0  0  0  0
   -3.1725   -3.5413    0.1102 H   0  0  0  0  0  0  0  0  0  0  0  0
   -5.1013   -4.8822   -0.0605 H   0  0  0  0  0  0  0  0  0  0  0  0
   -6.2384   -3.5048    0.2276 H   0  0  0  0  0  0  0  0  0  0  0  0
   -6.2828   -4.4530    2.2439 H   0  0  0  0  0  0  0  0  0  0  0  0
   -5.6419   -2.5001    3.0838 H   0  0  0  0  0  0  0  0  0  0  0  0
   -4.1395   -3.3996    3.4829 H   0  0  0  0  0  0  0  0  0  0  0  0
   -2.9216   -2.1876    1.9461 H   0  0  0  0  0  0  0  0  0  0  0  0
   -5.6453   -0.8215    1.5364 H   0  0  0  0  0  0  0  0  0  0  0  0
   -4.0805   -0.1000    2.0760 H   0  0  0  0  0  0  0  0  0  0  0  0
   -0.2294   -0.5395   -0.2765 H   0  0  0  0  0  0  0  0  0  0  0  0
    2.0971    0.0350   -0.6532 H   0  0  0  0  0  0  0  0  0  0  0  0
    0.9247    2.9148   -3.6397 H   0  0  0  0  0  0  0  0  0  0  0  0
   -1.4317    2.3524   -3.2528 H   0  0  0  0  0  0  0  0  0  0  0  0
    4.1528    0.3731   -1.5778 H   0  0  0  0  0  0  0  0  0  0  0  0
    5.0692    1.7296   -2.2856 H   0  0  0  0  0  0  0  0  0  0  0  0
    3.3278    1.9079    0.2544 H   0  0  0  0  0  0  0  0  0  0  0  0
    6.3858    2.0003   -0.0723 H   0  0  0  0  0  0  0  0  0  0  0  0
    5.4558    0.5927    0.5418 H   0  0  0  0  0  0  0  0  0  0  0  0
    4.9819    1.5996    2.5928 H   0  0  0  0  0  0  0  0  0  0  0  0
    6.5439    2.3901    2.2181 H   0  0  0  0  0  0  0  0  0  0  0  0
    3.7214    3.5375    2.2339 H   0  0  0  0  0  0  0  0  0  0  0  0
    5.2558    4.2572    2.8226 H   0  0  0  0  0  0  0  0  0  0  0  0
    4.4502    5.4648    0.8109 H   0  0  0  0  0  0  0  0  0  0  0  0
    5.9960    4.6246    0.4614 H   0  0  0  0  0  0  0  0  0  0  0  0
    4.7887    4.0130   -1.4247 H   0  0  0  0  0  0  0  0  0  0  0  0
    3.2028    4.0823   -0.5994 H   0  0  0  0  0  0  0  0  0  0  0  0
  1  2  2  0
  2  3  1  0
  3  4  1  0
  4  5  1  0
  5  6  1  0
  6  7  1  0
  7  8  1  0
  8  9  1  0
  9 10  1  0
 10 11  1  0
  2 12  1  0
 12 13  2  0
 13 14  1  0
 14 15  2  0
 15 16  1  0
 16 17  2  0
 15 18  1  0
 18 19  1  0
 19 20  1  0
 20 21  1  0
 21 22  1  0
 22 23  1  0
 23 24  1  0
 24 25  1  0
 11  4  1  0
 10  6  1  0
 12 17  1  0
 25 20  1  0
  3 26  1  0
  4 27  1  0
  5 28  1  0
  5 29  1  0
  6 30  1  0
  7 31  1  0
  7 32  1  0
  8 33  1  0
  9 34  1  0
  9 35  1  0
 10 36  1  0
 11 37  1  0
 11 38  1  0
 13 39  1  0
 14 40  1  0
 16 41  1  0
 17 42  1  0
 19 43  1  0
 19 44  1  0
 20 45  1  0
 21 46  1  0
 21 47  1  0
 22 48  1  0
 22 49  1  0
 23 50  1  0
 23 51  1  0
 24 52  1  0
 24 53  1  0
 25 54  1  0
 25 55  1  0
M  END
$$$$
