
     RDKit          3D

 42 43  0  0  0  0  0  0  0  0999 V2000
   -4.3139   -2.6246   -1.7320 C   0  0  0  0  0  0  0  0  0  0  0  0
   -4.6809   -1.2675   -2.3312 C   0  0  0  0  0  0  0  0  0  0  0  0
   -3.9661   -0.1115   -1.6199 C   0  0  0  0  0  0  0  0  0  0  0  0
   -2.5309   -0.1062   -1.9069 N   0  0  0  0  0  0  0  0  0  0  0  0
   -1.6486    0.8414   -1.2909 C   0  0  0  0  0  0  0  0  0  0  0  0
   -2.1097    1.6917   -0.4815 O   0  0  0  0  0  0  0  0  0  0  0  0
   -0.1649    0.7775   -1.5827 C   0  0  0  0  0  0  0  0  0  0  0  0
    0.5083   -0.3595   -0.7850 C   0  0  0  0  0  0  0  0  0  0  0  0
    0.7073    0.0167    0.6859 C   0  0  0  0  0  0  0  0  0  0  0  0
    1.4351    1.2866    0.7652 N   0  0  0  0  0  0  0  0  0  0  0  0
    0.8292    2.4455    0.1047 C   0  0  0  0  0  0  0  0  0  0  0  0
    0.5651    2.1287   -1.3756 C   0  0  0  0  0  0  0  0  0  0  0  0
    2.8228    1.3109    1.1477 C   0  0  0  0  0  0  0  0  0  0  0  0
    3.6546    1.9158    0.4171 O   0  0  0  0  0  0  0  0  0  0  0  0
    3.2903    0.6489    2.3889 C   0  0  0  0  0  0  0  0  0  0  0  0
    2.4046    0.4193    3.4576 C   0  0  0  0  0  0  0  0  0  0  0  0
    2.8543   -0.1965    4.6292 C   0  0  0  0  0  0  0  0  0  0  0  0
    4.1913   -0.5816    4.7505 C   0  0  0  0  0  0  0  0  0  0  0  0
    5.0842   -0.3480    3.7005 C   0  0  0  0  0  0  0  0  0  0  0  0
    6.7644   -0.8278    3.8559 Cl  0  0  0  0  0  0  0  0  0  0  0  0
    4.6379    0.2682    2.5258 C   0  0  0  0  0  0  0  0  0  0  0  0
   -4.8736   -3.4254   -2.2594 H   0  0  0  0  0  0  0  0  0  0  0  0
   -4.5830   -2.6560   -0.6547 H   0  0  0  0  0  0  0  0  0  0  0  0
   -3.2274   -2.8237   -1.8429 H   0  0  0  0  0  0  0  0  0  0  0  0
   -4.4322   -1.2568   -3.4146 H   0  0  0  0  0  0  0  0  0  0  0  0
   -5.7787   -1.1235   -2.2326 H   0  0  0  0  0  0  0  0  0  0  0  0
   -4.4056    0.8484   -1.9674 H   0  0  0  0  0  0  0  0  0  0  0  0
   -4.1293   -0.1892   -0.5225 H   0  0  0  0  0  0  0  0  0  0  0  0
   -2.1280   -0.8009   -2.5761 H   0  0  0  0  0  0  0  0  0  0  0  0
   -0.0647    0.5258   -2.6618 H   0  0  0  0  0  0  0  0  0  0  0  0
    1.5036   -0.5736   -1.2332 H   0  0  0  0  0  0  0  0  0  0  0  0
   -0.0935   -1.2921   -0.8537 H   0  0  0  0  0  0  0  0  0  0  0  0
    1.2622   -0.8000    1.1955 H   0  0  0  0  0  0  0  0  0  0  0  0
   -0.2791    0.1220    1.1873 H   0  0  0  0  0  0  0  0  0  0  0  0
    1.4877    3.3381    0.1824 H   0  0  0  0  0  0  0  0  0  0  0  0
   -0.1185    2.7032    0.6205 H   0  0  0  0  0  0  0  0  0  0  0  0
    1.5449    2.0848   -1.9002 H   0  0  0  0  0  0  0  0  0  0  0  0
   -0.0182    2.9551   -1.8369 H   0  0  0  0  0  0  0  0  0  0  0  0
    1.3682    0.7259    3.3931 H   0  0  0  0  0  0  0  0  0  0  0  0
    2.1660   -0.3710    5.4461 H   0  0  0  0  0  0  0  0  0  0  0  0
    4.5326   -1.0575    5.6610 H   0  0  0  0  0  0  0  0  0  0  0  0
    5.3402    0.4391    1.7190 H   0  0  0  0  0  0  0  0  0  0  0  0
  1  2  1  0
  2  3  1  0
  3  4  1  0
  4  5  1  0
  5  6  2  0
  5  7  1  0
  7  8  1  0
  8  9  1  0
  9 10  1  0
 10 11  1  0
 11 12  1  0
 10 13  1  0
 13 14  2  0
 13 15  1  0
 15 16  2  0
 16 17  1  0
 17 18  2  0
 18 19  1  0
 19 20  1  0
 19 21  2  0
 12  7  1  0
 15 21  1  0
  1 22  1  0
  1 23  1  0
  1 24  1  0
  2 25  1  0
  2 26  1  0
  3 27  1  0
  3 28  1  0
  4 29  1  0
  7 30  1  0
  8 31  1  0
  8 32  1  0
  9 33  1  0
  9 34  1  0
 11 35  1  0
 11 36  1  0
 12 37  1  0
 12 38  1  0
 16 39  1  0
 17 40  1  0
 18 41  1  0
 21 42  1  0
M  END
$$$$
