
     RDKit          3D

 46 48  0  0  0  0  0  0  0  0999 V2000
   -0.7467    2.2749   -1.0288 C   0  0  0  0  0  0  0  0  0  0  0  0
    0.4417    2.2079   -0.0568 C   0  0  0  0  0  0  0  0  0  0  0  0
    1.4338    3.3321   -0.4207 C   0  0  0  0  0  0  0  0  0  0  0  0
   -0.0287    2.4408    1.2995 N   0  0  0  0  0  0  0  0  0  0  0  0
    0.5157    1.4817    2.1796 C   0  0  0  0  0  0  0  0  0  0  0  0
    0.3356    1.5232    3.4248 O   0  0  0  0  0  0  0  0  0  0  0  0
    1.3100    0.4391    1.4991 C   0  0  0  0  0  0  0  0  0  0  0  0
    1.1918    0.8185    0.0085 C   0  0  0  0  0  0  0  0  0  0  0  0
    0.6894   -0.3331   -0.8616 C   0  0  0  0  0  0  0  0  0  0  0  0
    1.5478   -0.9392   -1.5601 O   0  0  0  0  0  0  0  0  0  0  0  0
   -0.6949   -0.7521   -0.9672 N   0  0  0  0  0  0  0  0  0  0  0  0
   -1.2865   -0.8592   -2.2998 C   0  0  0  0  0  0  0  0  0  0  0  0
   -2.2046   -2.0664   -2.2762 C   0  0  0  0  0  0  0  0  0  0  0  0
   -2.5150   -2.3192   -0.8104 C   0  0  0  0  0  0  0  0  0  0  0  0
   -1.3998   -1.6140    0.0048 C   0  0  0  0  0  0  0  0  0  0  0  0
   -2.0844   -0.7317    1.0740 C   0  0  0  0  0  0  0  0  0  0  0  0
   -0.4575   -2.6829    0.5944 C   0  0  0  0  0  0  0  0  0  0  0  0
    0.3333   -3.4664   -0.2742 C   0  0  0  0  0  0  0  0  0  0  0  0
    1.1770   -4.4629    0.2224 C   0  0  0  0  0  0  0  0  0  0  0  0
    1.2352   -4.7119    1.5929 C   0  0  0  0  0  0  0  0  0  0  0  0
    0.4425   -3.9709    2.4685 C   0  0  0  0  0  0  0  0  0  0  0  0
   -0.4052   -2.9729    1.9786 C   0  0  0  0  0  0  0  0  0  0  0  0
   -1.1533    3.3082   -1.0741 H   0  0  0  0  0  0  0  0  0  0  0  0
   -0.4286    1.9848   -2.0524 H   0  0  0  0  0  0  0  0  0  0  0  0
   -1.5743    1.6276   -0.6865 H   0  0  0  0  0  0  0  0  0  0  0  0
    2.2857    3.3461    0.2936 H   0  0  0  0  0  0  0  0  0  0  0  0
    0.9369    4.3254   -0.3769 H   0  0  0  0  0  0  0  0  0  0  0  0
    1.8329    3.1797   -1.4468 H   0  0  0  0  0  0  0  0  0  0  0  0
   -0.5704    3.2793    1.6085 H   0  0  0  0  0  0  0  0  0  0  0  0
    2.3655    0.5010    1.8426 H   0  0  0  0  0  0  0  0  0  0  0  0
    0.9204   -0.5700    1.7268 H   0  0  0  0  0  0  0  0  0  0  0  0
    2.2404    0.9888   -0.3315 H   0  0  0  0  0  0  0  0  0  0  0  0
   -1.8730    0.0565   -2.5221 H   0  0  0  0  0  0  0  0  0  0  0  0
   -0.5121   -0.9919   -3.0870 H   0  0  0  0  0  0  0  0  0  0  0  0
   -1.6791   -2.9476   -2.7048 H   0  0  0  0  0  0  0  0  0  0  0  0
   -3.1306   -1.8808   -2.8633 H   0  0  0  0  0  0  0  0  0  0  0  0
   -2.5758   -3.4119   -0.6073 H   0  0  0  0  0  0  0  0  0  0  0  0
   -3.5228   -1.8958   -0.5970 H   0  0  0  0  0  0  0  0  0  0  0  0
   -2.7814   -1.3371    1.6930 H   0  0  0  0  0  0  0  0  0  0  0  0
   -2.6848    0.0688    0.5942 H   0  0  0  0  0  0  0  0  0  0  0  0
   -1.3556   -0.2584    1.7475 H   0  0  0  0  0  0  0  0  0  0  0  0
    0.2998   -3.3075   -1.3431 H   0  0  0  0  0  0  0  0  0  0  0  0
    1.7844   -5.0451   -0.4582 H   0  0  0  0  0  0  0  0  0  0  0  0
    1.8893   -5.4844    1.9760 H   0  0  0  0  0  0  0  0  0  0  0  0
    0.4811   -4.1724    3.5315 H   0  0  0  0  0  0  0  0  0  0  0  0
   -1.0061   -2.4348    2.6965 H   0  0  0  0  0  0  0  0  0  0  0  0
  1  2  1  0
  2  3  1  0
  2  4  1  0
  4  5  1  0
  5  6  2  0
  5  7  1  0
  7  8  1  0
  8  9  1  0
  9 10  2  0
  9 11  1  0
 11 12  1  0
 12 13  1  0
 13 14  1  0
 14 15  1  0
 15 16  1  0
 15 17  1  0
 17 18  2  0
 18 19  1  0
 19 20  2  0
 20 21  1  0
 21 22  2  0
  8  2  1  0
 15 11  1  0
 17 22  1  0
  1 23  1  0
  1 24  1  0
  1 25  1  0
  3 26  1  0
  3 27  1  0
  3 28  1  0
  4 29  1  0
  7 30  1  0
  7 31  1  0
  8 32  1  0
 12 33  1  0
 12 34  1  0
 13 35  1  0
 13 36  1  0
 14 37  1  0
 14 38  1  0
 16 39  1  0
 16 40  1  0
 16 41  1  0
 18 42  1  0
 19 43  1  0
 20 44  1  0
 21 45  1  0
 22 46  1  0
M  END
$$$$
