
     RDKit          3D

 48 50  0  0  0  0  0  0  0  0999 V2000
   -0.4339   -2.5769    1.4646 O   0  0  0  0  0  0  0  0  0  0  0  0
   -1.3760   -2.0946    2.1512 C   0  0  0  0  0  0  0  0  0  0  0  0
   -1.2253   -0.8216    2.7966 N   0  0  0  0  0  0  0  0  0  0  0  0
   -0.1848    0.1206    2.4851 C   0  0  0  0  0  0  0  0  0  0  0  0
    0.3144    0.9506    3.4976 C   0  0  0  0  0  0  0  0  0  0  0  0
    1.3056    1.8915    3.2149 C   0  0  0  0  0  0  0  0  0  0  0  0
    1.8025    2.0212    1.9162 C   0  0  0  0  0  0  0  0  0  0  0  0
    1.3077    1.2089    0.8802 C   0  0  0  0  0  0  0  0  0  0  0  0
    0.2997    0.2708    1.1725 C   0  0  0  0  0  0  0  0  0  0  0  0
    1.8083    1.3550   -0.5088 C   0  0  0  0  0  0  0  0  0  0  0  0
    1.0884    0.9623   -1.4676 O   0  0  0  0  0  0  0  0  0  0  0  0
    3.1135    1.9025   -0.7691 N   0  0  0  0  0  0  0  0  0  0  0  0
    3.5423    2.3700   -2.0596 C   0  0  0  0  0  0  0  0  0  0  0  0
    4.8768    2.7546   -2.2559 C   0  0  0  0  0  0  0  0  0  0  0  0
    5.2819    3.2211   -3.5081 C   0  0  0  0  0  0  0  0  0  0  0  0
    4.3573    3.3044   -4.5514 C   0  0  0  0  0  0  0  0  0  0  0  0
    4.8506    3.8883   -6.1301 Cl  0  0  0  0  0  0  0  0  0  0  0  0
    3.0343    2.9187   -4.3218 C   0  0  0  0  0  0  0  0  0  0  0  0
    2.6604    2.4675   -3.0948 N   0  0  0  0  0  0  0  0  0  0  0  0
   -2.5927   -2.8350    2.3191 N   0  0  0  0  0  0  0  0  0  0  0  0
   -2.8246   -4.1163    1.6417 C   0  0  0  0  0  0  0  0  0  0  0  0
   -4.0827   -4.8073    2.1942 C   0  0  0  0  0  0  0  0  0  0  0  0
   -3.9407   -5.0661    3.5651 O   0  0  0  0  0  0  0  0  0  0  0  0
   -2.9623   -3.9042    0.1486 C   0  0  0  0  0  0  0  0  0  0  0  0
   -2.2624   -4.7283   -0.7492 C   0  0  0  0  0  0  0  0  0  0  0  0
   -2.3953   -4.5433   -2.1284 C   0  0  0  0  0  0  0  0  0  0  0  0
   -3.2314   -3.5399   -2.6258 C   0  0  0  0  0  0  0  0  0  0  0  0
   -3.3510   -3.3691   -3.9662 F   0  0  0  0  0  0  0  0  0  0  0  0
   -3.9421   -2.7200   -1.7411 C   0  0  0  0  0  0  0  0  0  0  0  0
   -4.9987   -1.4595   -2.3545 Cl  0  0  0  0  0  0  0  0  0  0  0  0
   -3.8121   -2.9044   -0.3600 C   0  0  0  0  0  0  0  0  0  0  0  0
   -1.8718   -0.5988    3.5870 H   0  0  0  0  0  0  0  0  0  0  0  0
   -0.0625    0.8634    4.5090 H   0  0  0  0  0  0  0  0  0  0  0  0
    1.6848    2.5284    4.0037 H   0  0  0  0  0  0  0  0  0  0  0  0
    2.5502    2.7789    1.7231 H   0  0  0  0  0  0  0  0  0  0  0  0
   -0.1180   -0.3301    0.3751 H   0  0  0  0  0  0  0  0  0  0  0  0
    3.8053    1.9282    0.0135 H   0  0  0  0  0  0  0  0  0  0  0  0
    5.5947    2.6921   -1.4477 H   0  0  0  0  0  0  0  0  0  0  0  0
    6.3112    3.5174   -3.6655 H   0  0  0  0  0  0  0  0  0  0  0  0
    2.3021    2.9779   -5.1161 H   0  0  0  0  0  0  0  0  0  0  0  0
   -3.3418   -2.4249    2.9220 H   0  0  0  0  0  0  0  0  0  0  0  0
   -1.9578   -4.7831    1.8503 H   0  0  0  0  0  0  0  0  0  0  0  0
   -4.9696   -4.1541    2.0481 H   0  0  0  0  0  0  0  0  0  0  0  0
   -4.2704   -5.7582    1.6442 H   0  0  0  0  0  0  0  0  0  0  0  0
   -3.3337   -5.8477    3.6456 H   0  0  0  0  0  0  0  0  0  0  0  0
   -1.6126   -5.5132   -0.3831 H   0  0  0  0  0  0  0  0  0  0  0  0
   -1.8490   -5.1802   -2.8122 H   0  0  0  0  0  0  0  0  0  0  0  0
   -4.3697   -2.2682    0.3163 H   0  0  0  0  0  0  0  0  0  0  0  0
  1  2  2  0
  2  3  1  0
  3  4  1  0
  4  5  2  0
  5  6  1  0
  6  7  2  0
  7  8  1  0
  8  9  2  0
  8 10  1  0
 10 11  2  0
 10 12  1  0
 12 13  1  0
 13 14  2  0
 14 15  1  0
 15 16  2  0
 16 17  1  0
 16 18  1  0
 18 19  2  0
  2 20  1  0
 20 21  1  0
 21 22  1  0
 22 23  1  0
 21 24  1  0
 24 25  2  0
 25 26  1  0
 26 27  2  0
 27 28  1  0
 27 29  1  0
 29 30  1  0
 29 31  2  0
  4  9  1  0
 13 19  1  0
 24 31  1  0
  3 32  1  0
  5 33  1  0
  6 34  1  0
  7 35  1  0
  9 36  1  0
 12 37  1  0
 14 38  1  0
 15 39  1  0
 18 40  1  0
 20 41  1  0
 21 42  1  0
 22 43  1  0
 22 44  1  0
 23 45  1  0
 25 46  1  0
 26 47  1  0
 31 48  1  0
M  END
$$$$
