
     RDKit          3D

 52 56  0  0  0  0  0  0  0  0999 V2000
    1.9981   -0.6987   -0.4163 O   0  0  0  0  0  0  0  0  0  0  0  0
    0.7500   -0.8637   -0.4809 C   0  0  0  0  0  0  0  0  0  0  0  0
    0.0498   -0.6339   -1.7160 N   0  0  0  0  0  0  0  0  0  0  0  0
    0.7137   -0.4114   -2.9741 C   0  0  0  0  0  0  0  0  0  0  0  0
    2.0548   -0.5657   -3.1256 N   0  0  0  0  0  0  0  0  0  0  0  0
    2.2505   -0.2942   -4.4250 C   0  0  0  0  0  0  0  0  0  0  0  0
    3.4605   -0.3124   -5.1143 C   0  0  0  0  0  0  0  0  0  0  0  0
    3.4384   -0.0076   -6.4861 C   0  0  0  0  0  0  0  0  0  0  0  0
    2.2202    0.3060   -7.1276 C   0  0  0  0  0  0  0  0  0  0  0  0
    1.0140    0.3184   -6.4029 C   0  0  0  0  0  0  0  0  0  0  0  0
    1.0680    0.0093   -5.0372 C   0  0  0  0  0  0  0  0  0  0  0  0
    0.0703   -0.0576   -4.1303 N   0  0  0  0  0  0  0  0  0  0  0  0
   -1.3649    0.1947   -4.3707 C   0  0  0  0  0  0  0  0  0  0  0  0
   -1.9088    1.3439   -3.5248 C   0  0  0  0  0  0  0  0  0  0  0  0
   -3.3553    0.9778   -3.2418 C   0  0  0  0  0  0  0  0  0  0  0  0
   -3.4150   -0.5441   -3.2428 C   0  0  0  0  0  0  0  0  0  0  0  0
   -2.2385   -1.0321   -4.0859 C   0  0  0  0  0  0  0  0  0  0  0  0
    0.0287   -1.2755    0.7367 C   0  0  0  0  0  0  0  0  0  0  0  0
   -1.3094   -1.5941    0.8496 C   0  0  0  0  0  0  0  0  0  0  0  0
   -1.5335   -1.9072    2.1013 O   0  0  0  0  0  0  0  0  0  0  0  0
   -0.3919   -1.7983    2.7441 C   0  0  0  0  0  0  0  0  0  0  0  0
    0.6192   -1.4036    1.9404 N   0  0  0  0  0  0  0  0  0  0  0  0
   -0.2592   -2.0473    4.2264 C   0  0  0  0  0  0  0  0  0  0  0  0
    1.1632   -2.4805    4.6410 C   0  0  0  0  0  0  0  0  0  0  0  0
    2.1175   -1.2779    4.7584 C   0  0  0  0  0  0  0  0  0  0  0  0
    1.5876   -0.2828    5.6147 O   0  0  0  0  0  0  0  0  0  0  0  0
    0.4002    0.2493    5.0586 C   0  0  0  0  0  0  0  0  0  0  0  0
   -0.7052   -0.8144    5.0312 C   0  0  0  0  0  0  0  0  0  0  0  0
   -0.9887   -0.6202   -1.6876 H   0  0  0  0  0  0  0  0  0  0  0  0
    4.3874   -0.5564   -4.6120 H   0  0  0  0  0  0  0  0  0  0  0  0
    4.3600   -0.0135   -7.0536 H   0  0  0  0  0  0  0  0  0  0  0  0
    2.2145    0.5378   -8.1844 H   0  0  0  0  0  0  0  0  0  0  0  0
    0.0898    0.5593   -6.9070 H   0  0  0  0  0  0  0  0  0  0  0  0
   -1.5341    0.4747   -5.4313 H   0  0  0  0  0  0  0  0  0  0  0  0
   -1.8446    2.3091   -4.0734 H   0  0  0  0  0  0  0  0  0  0  0  0
   -1.3575    1.4568   -2.5685 H   0  0  0  0  0  0  0  0  0  0  0  0
   -4.0024    1.3738   -4.0558 H   0  0  0  0  0  0  0  0  0  0  0  0
   -3.6960    1.3967   -2.2698 H   0  0  0  0  0  0  0  0  0  0  0  0
   -3.3189   -0.9222   -2.2018 H   0  0  0  0  0  0  0  0  0  0  0  0
   -4.3820   -0.9005   -3.6599 H   0  0  0  0  0  0  0  0  0  0  0  0
   -2.6106   -1.4616   -5.0425 H   0  0  0  0  0  0  0  0  0  0  0  0
   -1.6835   -1.8351   -3.5545 H   0  0  0  0  0  0  0  0  0  0  0  0
   -2.0616   -1.5979    0.0725 H   0  0  0  0  0  0  0  0  0  0  0  0
   -0.9507   -2.8842    4.4729 H   0  0  0  0  0  0  0  0  0  0  0  0
    1.1075   -2.9793    5.6339 H   0  0  0  0  0  0  0  0  0  0  0  0
    1.5728   -3.2211    3.9189 H   0  0  0  0  0  0  0  0  0  0  0  0
    2.3663   -0.8543    3.7603 H   0  0  0  0  0  0  0  0  0  0  0  0
    3.0756   -1.6357    5.1917 H   0  0  0  0  0  0  0  0  0  0  0  0
    0.5786    0.6665    4.0404 H   0  0  0  0  0  0  0  0  0  0  0  0
    0.0613    1.0932    5.6971 H   0  0  0  0  0  0  0  0  0  0  0  0
   -1.6370   -0.3814    4.6047 H   0  0  0  0  0  0  0  0  0  0  0  0
   -0.9272   -1.1242    6.0762 H   0  0  0  0  0  0  0  0  0  0  0  0
  1  2  2  0
  2  3  1  0
  3  4  1  0
  4  5  2  0
  5  6  1  0
  6  7  2  0
  7  8  1  0
  8  9  2  0
  9 10  1  0
 10 11  2  0
 11 12  1  0
 12 13  1  0
 13 14  1  0
 14 15  1  0
 15 16  1  0
 16 17  1  0
  2 18  1  0
 18 19  2  0
 19 20  1  0
 20 21  1  0
 21 22  2  0
 21 23  1  0
 23 24  1  0
 24 25  1  0
 25 26  1  0
 26 27  1  0
 27 28  1  0
 12  4  1  0
  6 11  1  0
 17 13  1  0
 22 18  1  0
 28 23  1  0
  3 29  1  0
  7 30  1  0
  8 31  1  0
  9 32  1  0
 10 33  1  0
 13 34  1  0
 14 35  1  0
 14 36  1  0
 15 37  1  0
 15 38  1  0
 16 39  1  0
 16 40  1  0
 17 41  1  0
 17 42  1  0
 19 43  1  0
 23 44  1  0
 24 45  1  0
 24 46  1  0
 25 47  1  0
 25 48  1  0
 27 49  1  0
 27 50  1  0
 28 51  1  0
 28 52  1  0
M  END
$$$$
