
     RDKit          3D

 40 42  0  0  0  0  0  0  0  0999 V2000
   -1.1756   -0.7796   -1.5795 O   0  0  0  0  0  0  0  0  0  0  0  0
   -1.1253    0.2311   -0.8258 C   0  0  0  0  0  0  0  0  0  0  0  0
   -1.5689    1.5076   -1.3168 N   0  0  0  0  0  0  0  0  0  0  0  0
   -1.6449    1.8424   -2.7136 C   0  0  0  0  0  0  0  0  0  0  0  0
   -2.6122    2.7593   -3.1495 C   0  0  0  0  0  0  0  0  0  0  0  0
   -2.6926    3.1144   -4.4974 C   0  0  0  0  0  0  0  0  0  0  0  0
   -1.7996    2.5673   -5.4209 C   0  0  0  0  0  0  0  0  0  0  0  0
   -0.8119    1.6671   -5.0063 C   0  0  0  0  0  0  0  0  0  0  0  0
   -0.7325    1.3115   -3.6448 C   0  0  0  0  0  0  0  0  0  0  0  0
    0.0691    1.1573   -5.9729 O   0  0  0  0  0  0  0  0  0  0  0  0
    1.1036    0.2127   -5.7127 C   0  0  0  0  0  0  0  0  0  0  0  0
    1.8200   -0.0035   -6.8738 F   0  0  0  0  0  0  0  0  0  0  0  0
    0.5544   -0.9858   -5.2937 F   0  0  0  0  0  0  0  0  0  0  0  0
   -0.6553    0.0754    0.5724 C   0  0  0  0  0  0  0  0  0  0  0  0
   -0.6167   -1.1978    1.1681 C   0  0  0  0  0  0  0  0  0  0  0  0
   -0.1684   -1.3547    2.4828 C   0  0  0  0  0  0  0  0  0  0  0  0
    0.2710   -0.2434    3.2213 C   0  0  0  0  0  0  0  0  0  0  0  0
    0.2194    1.0281    2.6349 C   0  0  0  0  0  0  0  0  0  0  0  0
   -0.2284    1.1872    1.3204 C   0  0  0  0  0  0  0  0  0  0  0  0
    0.7135   -0.3752    4.5828 N   0  0  0  0  0  0  0  0  0  0  0  0
    1.4647   -1.4907    5.0830 C   0  0  0  0  0  0  0  0  0  0  0  0
    1.6440   -1.6306    6.4244 N   0  0  0  0  0  0  0  0  0  0  0  0
    2.3740   -2.6581    6.9312 C   0  0  0  0  0  0  0  0  0  0  0  0
    2.9610   -3.5846    6.0710 C   0  0  0  0  0  0  0  0  0  0  0  0
    2.7808   -3.4221    4.6985 C   0  0  0  0  0  0  0  0  0  0  0  0
    2.0442   -2.3812    4.2310 N   0  0  0  0  0  0  0  0  0  0  0  0
   -1.9674    2.1865   -0.6295 H   0  0  0  0  0  0  0  0  0  0  0  0
   -3.3107    3.1918   -2.4441 H   0  0  0  0  0  0  0  0  0  0  0  0
   -3.4482    3.8158   -4.8270 H   0  0  0  0  0  0  0  0  0  0  0  0
   -1.8704    2.8493   -6.4639 H   0  0  0  0  0  0  0  0  0  0  0  0
    0.0470    0.6462   -3.3032 H   0  0  0  0  0  0  0  0  0  0  0  0
    1.7949    0.6045   -4.9370 H   0  0  0  0  0  0  0  0  0  0  0  0
   -0.9503   -2.0724    0.6235 H   0  0  0  0  0  0  0  0  0  0  0  0
   -0.1903   -2.3407    2.9276 H   0  0  0  0  0  0  0  0  0  0  0  0
    0.5431    1.8972    3.1941 H   0  0  0  0  0  0  0  0  0  0  0  0
   -0.2216    2.1796    0.8893 H   0  0  0  0  0  0  0  0  0  0  0  0
    0.5499    0.4265    5.2334 H   0  0  0  0  0  0  0  0  0  0  0  0
    2.5004   -2.7532    8.0014 H   0  0  0  0  0  0  0  0  0  0  0  0
    3.5462   -4.4080    6.4593 H   0  0  0  0  0  0  0  0  0  0  0  0
    3.2284   -4.1206    4.0042 H   0  0  0  0  0  0  0  0  0  0  0  0
  1  2  2  0
  2  3  1  0
  3  4  1  0
  4  5  2  0
  5  6  1  0
  6  7  2  0
  7  8  1  0
  8  9  2  0
  8 10  1  0
 10 11  1  0
 11 12  1  0
 11 13  1  0
  2 14  1  0
 14 15  2  0
 15 16  1  0
 16 17  2  0
 17 18  1  0
 18 19  2  0
 17 20  1  0
 20 21  1  0
 21 22  2  0
 22 23  1  0
 23 24  2  0
 24 25  1  0
 25 26  2  0
  4  9  1  0
 14 19  1  0
 21 26  1  0
  3 27  1  0
  5 28  1  0
  6 29  1  0
  7 30  1  0
  9 31  1  0
 11 32  1  0
 15 33  1  0
 16 34  1  0
 18 35  1  0
 19 36  1  0
 20 37  1  0
 23 38  1  0
 24 39  1  0
 25 40  1  0
M  END
$$$$
