
     RDKit          3D

 48 50  0  0  0  0  0  0  0  0999 V2000
   -0.9696    0.1446   -1.2257 O   0  0  0  0  0  0  0  0  0  0  0  0
   -1.6505   -0.4635   -0.3541 C   0  0  0  0  0  0  0  0  0  0  0  0
   -2.3052    0.2659    0.6966 N   0  0  0  0  0  0  0  0  0  0  0  0
   -2.0751    1.6596    0.9691 C   0  0  0  0  0  0  0  0  0  0  0  0
   -3.1369    2.4560    1.4248 C   0  0  0  0  0  0  0  0  0  0  0  0
   -2.9327    3.8060    1.7199 C   0  0  0  0  0  0  0  0  0  0  0  0
   -1.6623    4.3701    1.5801 C   0  0  0  0  0  0  0  0  0  0  0  0
   -0.5797    3.5880    1.1389 C   0  0  0  0  0  0  0  0  0  0  0  0
   -0.7930    2.2274    0.8456 C   0  0  0  0  0  0  0  0  0  0  0  0
    0.7731    4.1836    1.0277 C   0  0  0  0  0  0  0  0  0  0  0  0
    1.0548    5.2077    1.7069 O   0  0  0  0  0  0  0  0  0  0  0  0
    1.7510    3.6238    0.1329 N   0  0  0  0  0  0  0  0  0  0  0  0
    3.1634    3.8688    0.2423 C   0  0  0  0  0  0  0  0  0  0  0  0
    4.0337    3.3928   -0.7494 C   0  0  0  0  0  0  0  0  0  0  0  0
    5.4069    3.6140   -0.6216 C   0  0  0  0  0  0  0  0  0  0  0  0
    5.9012    4.3016    0.4908 C   0  0  0  0  0  0  0  0  0  0  0  0
    7.6238    4.5831    0.6679 Cl  0  0  0  0  0  0  0  0  0  0  0  0
    5.0077    4.7579    1.4635 C   0  0  0  0  0  0  0  0  0  0  0  0
    3.6745    4.5293    1.3220 N   0  0  0  0  0  0  0  0  0  0  0  0
   -1.8115   -1.8869   -0.4347 N   0  0  0  0  0  0  0  0  0  0  0  0
   -1.1969   -2.6874   -1.5009 C   0  0  0  0  0  0  0  0  0  0  0  0
    0.3183   -2.8646   -1.2553 C   0  0  0  0  0  0  0  0  0  0  0  0
    0.5904   -3.2234    0.0751 O   0  0  0  0  0  0  0  0  0  0  0  0
   -1.9665   -3.9868   -1.6852 C   0  0  0  0  0  0  0  0  0  0  0  0
   -3.1687   -3.9545   -2.4182 C   0  0  0  0  0  0  0  0  0  0  0  0
   -3.9399   -5.1099   -2.5729 C   0  0  0  0  0  0  0  0  0  0  0  0
   -3.5288   -6.3121   -1.9942 C   0  0  0  0  0  0  0  0  0  0  0  0
   -4.2840   -7.4266   -2.1579 F   0  0  0  0  0  0  0  0  0  0  0  0
   -2.3470   -6.3592   -1.2404 C   0  0  0  0  0  0  0  0  0  0  0  0
   -1.8297   -7.8629   -0.4911 Cl  0  0  0  0  0  0  0  0  0  0  0  0
   -1.5766   -5.2009   -1.0759 C   0  0  0  0  0  0  0  0  0  0  0  0
   -3.0678   -0.2183    1.2216 H   0  0  0  0  0  0  0  0  0  0  0  0
   -4.1253    2.0298    1.5439 H   0  0  0  0  0  0  0  0  0  0  0  0
   -3.7586    4.4137    2.0681 H   0  0  0  0  0  0  0  0  0  0  0  0
   -1.5272    5.4199    1.8193 H   0  0  0  0  0  0  0  0  0  0  0  0
    0.0446    1.5977    0.5726 H   0  0  0  0  0  0  0  0  0  0  0  0
    1.4122    3.0320   -0.6596 H   0  0  0  0  0  0  0  0  0  0  0  0
    3.6520    2.8548   -1.6092 H   0  0  0  0  0  0  0  0  0  0  0  0
    6.0844    3.2462   -1.3815 H   0  0  0  0  0  0  0  0  0  0  0  0
    5.3710    5.2881    2.3348 H   0  0  0  0  0  0  0  0  0  0  0  0
   -2.4066   -2.3598    0.2797 H   0  0  0  0  0  0  0  0  0  0  0  0
   -1.2902   -2.1283   -2.4602 H   0  0  0  0  0  0  0  0  0  0  0  0
    0.7206   -3.6484   -1.9345 H   0  0  0  0  0  0  0  0  0  0  0  0
    0.8529   -1.9207   -1.5098 H   0  0  0  0  0  0  0  0  0  0  0  0
    0.5847   -2.3851    0.6071 H   0  0  0  0  0  0  0  0  0  0  0  0
   -3.5134   -3.0290   -2.8634 H   0  0  0  0  0  0  0  0  0  0  0  0
   -4.8602   -5.0694   -3.1434 H   0  0  0  0  0  0  0  0  0  0  0  0
   -0.6794   -5.2666   -0.4754 H   0  0  0  0  0  0  0  0  0  0  0  0
  1  2  2  0
  2  3  1  0
  3  4  1  0
  4  5  2  0
  5  6  1  0
  6  7  2  0
  7  8  1  0
  8  9  2  0
  8 10  1  0
 10 11  2  0
 10 12  1  0
 12 13  1  0
 13 14  2  0
 14 15  1  0
 15 16  2  0
 16 17  1  0
 16 18  1  0
 18 19  2  0
  2 20  1  0
 20 21  1  0
 21 22  1  0
 22 23  1  0
 21 24  1  0
 24 25  2  0
 25 26  1  0
 26 27  2  0
 27 28  1  0
 27 29  1  0
 29 30  1  0
 29 31  2  0
  4  9  1  0
 13 19  1  0
 24 31  1  0
  3 32  1  0
  5 33  1  0
  6 34  1  0
  7 35  1  0
  9 36  1  0
 12 37  1  0
 14 38  1  0
 15 39  1  0
 18 40  1  0
 20 41  1  0
 21 42  1  0
 22 43  1  0
 22 44  1  0
 23 45  1  0
 25 46  1  0
 26 47  1  0
 31 48  1  0
M  END
$$$$
