
     RDKit          3D

 43 46  0  0  0  0  0  0  0  0999 V2000
    3.3576    2.8673    1.5976 C   0  0  0  0  0  0  0  0  0  0  0  0
    2.4479    1.9695    0.8962 N   0  0  0  0  0  0  0  0  0  0  0  0
    1.6244    0.9620    1.5356 C   0  0  0  0  0  0  0  0  0  0  0  0
    0.9186    0.2175    0.3885 C   0  0  0  0  0  0  0  0  0  0  0  0
    1.0444    1.1131   -0.8820 C   0  0  0  0  0  0  0  0  0  0  0  0
   -0.2746    1.8975   -1.1614 C   0  0  0  0  0  0  0  0  0  0  0  0
   -1.1855    1.2026   -2.1913 C   0  0  0  0  0  0  0  0  0  0  0  0
   -0.9592   -0.2472   -2.1948 N   0  0  0  0  0  0  0  0  0  0  0  0
    0.3926   -0.7444   -2.5006 C   0  0  0  0  0  0  0  0  0  0  0  0
    1.4701    0.2903   -2.1226 C   0  0  0  0  0  0  0  0  0  0  0  0
   -1.9646   -1.1371   -1.6708 C   0  0  0  0  0  0  0  0  0  0  0  0
   -2.7397   -0.7323   -0.7624 O   0  0  0  0  0  0  0  0  0  0  0  0
   -2.1083   -2.5213   -2.1684 C   0  0  0  0  0  0  0  0  0  0  0  0
   -1.7241   -2.9961   -3.4196 C   0  0  0  0  0  0  0  0  0  0  0  0
   -2.0811   -4.3405   -3.4780 C   0  0  0  0  0  0  0  0  0  0  0  0
   -2.6723   -4.6217   -2.2639 C   0  0  0  0  0  0  0  0  0  0  0  0
   -3.2089   -5.8195   -1.8046 C   0  0  0  0  0  0  0  0  0  0  0  0
   -3.7551   -5.8265   -0.5133 C   0  0  0  0  0  0  0  0  0  0  0  0
   -3.7423   -4.6486    0.2568 C   0  0  0  0  0  0  0  0  0  0  0  0
   -3.1998   -3.5091   -0.2590 N   0  0  0  0  0  0  0  0  0  0  0  0
   -2.6895   -3.5276   -1.4900 N   0  0  0  0  0  0  0  0  0  0  0  0
    2.1209    2.0610   -0.4758 C   0  0  0  0  0  0  0  0  0  0  0  0
    2.6674    2.8885   -1.2549 O   0  0  0  0  0  0  0  0  0  0  0  0
    4.3820    2.7555    1.1852 H   0  0  0  0  0  0  0  0  0  0  0  0
    3.0211    3.9174    1.4685 H   0  0  0  0  0  0  0  0  0  0  0  0
    3.3781    2.6273    2.6818 H   0  0  0  0  0  0  0  0  0  0  0  0
    2.2539    0.2693    2.1350 H   0  0  0  0  0  0  0  0  0  0  0  0
    0.8756    1.4570    2.1912 H   0  0  0  0  0  0  0  0  0  0  0  0
   -0.1376   -0.0083    0.6523 H   0  0  0  0  0  0  0  0  0  0  0  0
    1.4385   -0.7547    0.2390 H   0  0  0  0  0  0  0  0  0  0  0  0
   -0.8393    2.0553   -0.2161 H   0  0  0  0  0  0  0  0  0  0  0  0
   -0.0457    2.9133   -1.5546 H   0  0  0  0  0  0  0  0  0  0  0  0
   -0.9547    1.5958   -3.2057 H   0  0  0  0  0  0  0  0  0  0  0  0
   -2.2505    1.4486   -1.9873 H   0  0  0  0  0  0  0  0  0  0  0  0
    0.4709   -0.9762   -3.5832 H   0  0  0  0  0  0  0  0  0  0  0  0
    0.5894   -1.6795   -1.9312 H   0  0  0  0  0  0  0  0  0  0  0  0
    2.4369   -0.2291   -1.9393 H   0  0  0  0  0  0  0  0  0  0  0  0
    1.6230    0.9795   -2.9829 H   0  0  0  0  0  0  0  0  0  0  0  0
   -1.2669   -2.4296   -4.2184 H   0  0  0  0  0  0  0  0  0  0  0  0
   -1.9364   -5.0176   -4.3095 H   0  0  0  0  0  0  0  0  0  0  0  0
   -3.2057   -6.7122   -2.4170 H   0  0  0  0  0  0  0  0  0  0  0  0
   -4.1843   -6.7345   -0.1102 H   0  0  0  0  0  0  0  0  0  0  0  0
   -4.1601   -4.6444    1.2545 H   0  0  0  0  0  0  0  0  0  0  0  0
  1  2  1  0
  2  3  1  0
  3  4  1  0
  4  5  1  0
  5  6  1  0
  6  7  1  0
  7  8  1  0
  8  9  1  0
  9 10  1  0
  8 11  1  0
 11 12  2  0
 11 13  1  0
 13 14  2  0
 14 15  1  0
 15 16  2  0
 16 17  1  0
 17 18  2  0
 18 19  1  0
 19 20  2  0
 20 21  1  0
  5 22  1  0
 22 23  2  0
 22  2  1  0
 10  5  1  0
 21 13  1  0
 21 16  1  0
  1 24  1  0
  1 25  1  0
  1 26  1  0
  3 27  1  0
  3 28  1  0
  4 29  1  0
  4 30  1  0
  6 31  1  0
  6 32  1  0
  7 33  1  0
  7 34  1  0
  9 35  1  0
  9 36  1  0
 10 37  1  0
 10 38  1  0
 14 39  1  0
 15 40  1  0
 17 41  1  0
 18 42  1  0
 19 43  1  0
M  END
$$$$
