
     RDKit          3D

 44 46  0  0  0  0  0  0  0  0999 V2000
   -1.3537    5.8322    3.1894 C   0  0  0  0  0  0  0  0  0  0  0  0
   -0.9803    4.5796    3.7512 O   0  0  0  0  0  0  0  0  0  0  0  0
   -0.4230    3.5475    2.9909 C   0  0  0  0  0  0  0  0  0  0  0  0
   -0.0765    2.3469    3.6099 C   0  0  0  0  0  0  0  0  0  0  0  0
    0.4800    1.3330    2.8327 C   0  0  0  0  0  0  0  0  0  0  0  0
    0.6721    1.5269    1.5028 N   0  0  0  0  0  0  0  0  0  0  0  0
    0.3259    2.7000    0.9029 C   0  0  0  0  0  0  0  0  0  0  0  0
   -0.2136    3.6991    1.6545 N   0  0  0  0  0  0  0  0  0  0  0  0
    0.5420    2.8895   -0.5108 N   0  0  0  0  0  0  0  0  0  0  0  0
    0.5127    4.2416   -1.0739 C   0  0  0  0  0  0  0  0  0  0  0  0
    1.0049    1.8029   -1.3349 C   0  0  0  0  0  0  0  0  0  0  0  0
    2.0083    1.9791   -2.0790 O   0  0  0  0  0  0  0  0  0  0  0  0
    0.3106    0.4920   -1.3447 C   0  0  0  0  0  0  0  0  0  0  0  0
    0.9804   -0.6626   -1.7843 C   0  0  0  0  0  0  0  0  0  0  0  0
    0.3282   -1.8990   -1.7988 C   0  0  0  0  0  0  0  0  0  0  0  0
   -1.0069   -2.0023   -1.3701 C   0  0  0  0  0  0  0  0  0  0  0  0
   -1.6842   -0.8483   -0.9634 C   0  0  0  0  0  0  0  0  0  0  0  0
   -1.0339    0.3886   -0.9471 C   0  0  0  0  0  0  0  0  0  0  0  0
   -1.7030   -3.2198   -1.3799 O   0  0  0  0  0  0  0  0  0  0  0  0
   -1.1302   -4.4805   -1.1675 C   0  0  0  0  0  0  0  0  0  0  0  0
   -1.8433   -5.6237   -1.5344 C   0  0  0  0  0  0  0  0  0  0  0  0
   -1.2874   -6.8841   -1.3086 C   0  0  0  0  0  0  0  0  0  0  0  0
   -0.0149   -7.0003   -0.7277 C   0  0  0  0  0  0  0  0  0  0  0  0
    0.6515   -5.8258   -0.3414 C   0  0  0  0  0  0  0  0  0  0  0  0
    0.0872   -4.6104   -0.5706 N   0  0  0  0  0  0  0  0  0  0  0  0
    0.5739   -8.3560   -0.4316 C   0  0  0  0  0  0  0  0  0  0  0  0
    0.1784   -9.2766   -1.3863 F   0  0  0  0  0  0  0  0  0  0  0  0
    0.1393   -8.7794    0.8104 F   0  0  0  0  0  0  0  0  0  0  0  0
    1.9570   -8.2999   -0.4304 F   0  0  0  0  0  0  0  0  0  0  0  0
   -1.7695    6.4805    3.9877 H   0  0  0  0  0  0  0  0  0  0  0  0
   -2.1281    5.6827    2.4074 H   0  0  0  0  0  0  0  0  0  0  0  0
   -0.4651    6.3310    2.7476 H   0  0  0  0  0  0  0  0  0  0  0  0
   -0.2340    2.2037    4.6713 H   0  0  0  0  0  0  0  0  0  0  0  0
    0.7600    0.3915    3.2857 H   0  0  0  0  0  0  0  0  0  0  0  0
    0.4712    4.2059   -2.1840 H   0  0  0  0  0  0  0  0  0  0  0  0
    1.4234    4.7956   -0.7629 H   0  0  0  0  0  0  0  0  0  0  0  0
   -0.3893    4.7865   -0.7233 H   0  0  0  0  0  0  0  0  0  0  0  0
    2.0104   -0.6102   -2.1152 H   0  0  0  0  0  0  0  0  0  0  0  0
    0.8592   -2.7641   -2.1720 H   0  0  0  0  0  0  0  0  0  0  0  0
   -2.7198   -0.9113   -0.6538 H   0  0  0  0  0  0  0  0  0  0  0  0
   -1.5876    1.2648   -0.6345 H   0  0  0  0  0  0  0  0  0  0  0  0
   -2.8225   -5.5355   -1.9875 H   0  0  0  0  0  0  0  0  0  0  0  0
   -1.8516   -7.7661   -1.5844 H   0  0  0  0  0  0  0  0  0  0  0  0
    1.6165   -5.8728    0.1462 H   0  0  0  0  0  0  0  0  0  0  0  0
  1  2  1  0
  2  3  1  0
  3  4  2  0
  4  5  1  0
  5  6  2  0
  6  7  1  0
  7  8  2  0
  7  9  1  0
  9 10  1  0
  9 11  1  0
 11 12  2  0
 11 13  1  0
 13 14  2  0
 14 15  1  0
 15 16  2  0
 16 17  1  0
 17 18  2  0
 16 19  1  0
 19 20  1  0
 20 21  2  0
 21 22  1  0
 22 23  2  0
 23 24  1  0
 24 25  2  0
 23 26  1  0
 26 27  1  0
 26 28  1  0
 26 29  1  0
  3  8  1  0
 13 18  1  0
 20 25  1  0
  1 30  1  0
  1 31  1  0
  1 32  1  0
  4 33  1  0
  5 34  1  0
 10 35  1  0
 10 36  1  0
 10 37  1  0
 14 38  1  0
 15 39  1  0
 17 40  1  0
 18 41  1  0
 21 42  1  0
 22 43  1  0
 24 44  1  0
M  END
$$$$
