
     RDKit          3D

 53 56  0  0  0  0  0  0  0  0999 V2000
    2.9545   -5.5701   -1.0535 C   0  0  0  0  0  0  0  0  0  0  0  0
    4.1674   -5.0698   -1.5330 C   0  0  0  0  0  0  0  0  0  0  0  0
    4.3631   -3.6906   -1.6524 C   0  0  0  0  0  0  0  0  0  0  0  0
    3.3455   -2.7985   -1.2792 C   0  0  0  0  0  0  0  0  0  0  0  0
    2.1311   -3.3122   -0.7841 C   0  0  0  0  0  0  0  0  0  0  0  0
    1.9403   -4.6917   -0.6692 C   0  0  0  0  0  0  0  0  0  0  0  0
    3.5326   -1.3402   -1.4284 C   0  0  0  0  0  0  0  0  0  0  0  0
    4.6583   -0.7635   -1.8997 N   0  0  0  0  0  0  0  0  0  0  0  0
    4.4020    0.5100   -1.9141 O   0  0  0  0  0  0  0  0  0  0  0  0
    3.1844    0.7206   -1.4737 C   0  0  0  0  0  0  0  0  0  0  0  0
    2.5722   -0.4346   -1.1490 N   0  0  0  0  0  0  0  0  0  0  0  0
    2.5321    2.0791   -1.4037 C   0  0  0  0  0  0  0  0  0  0  0  0
    1.7025    2.3395   -2.6719 C   0  0  0  0  0  0  0  0  0  0  0  0
    0.4277    1.4763   -2.6998 C   0  0  0  0  0  0  0  0  0  0  0  0
   -0.3153    1.4545   -1.4084 N   0  0  0  0  0  0  0  0  0  0  0  0
   -0.5567    0.1000   -0.8547 C   0  0  0  0  0  0  0  0  0  0  0  0
   -2.0324   -0.0526   -0.4310 C   0  0  0  0  0  0  0  0  0  0  0  0
   -2.2247   -1.3994    0.3100 C   0  0  0  0  0  0  0  0  0  0  0  0
   -3.6288   -1.6585    0.9080 C   0  0  0  0  0  0  0  0  0  0  0  0
   -4.5007   -0.4058    1.1098 C   0  0  0  0  0  0  0  0  0  0  0  0
   -4.9344    0.3318   -0.1859 C   0  0  0  0  0  0  0  0  0  0  0  0
   -4.3741   -0.2312   -1.4276 N   0  0  0  0  0  0  0  0  0  0  0  0
   -2.9567    0.0954   -1.6682 C   0  0  0  0  0  0  0  0  0  0  0  0
    0.1762    2.4123   -0.3932 C   0  0  0  0  0  0  0  0  0  0  0  0
    1.6851    2.2565   -0.1153 C   0  0  0  0  0  0  0  0  0  0  0  0
    2.8060   -6.6384   -0.9650 H   0  0  0  0  0  0  0  0  0  0  0  0
    4.9549   -5.7525   -1.8245 H   0  0  0  0  0  0  0  0  0  0  0  0
    5.3108   -3.3233   -2.0306 H   0  0  0  0  0  0  0  0  0  0  0  0
    1.3348   -2.6482   -0.4730 H   0  0  0  0  0  0  0  0  0  0  0  0
    1.0091   -5.0808   -0.2795 H   0  0  0  0  0  0  0  0  0  0  0  0
    3.3523    2.8320   -1.3816 H   0  0  0  0  0  0  0  0  0  0  0  0
    2.3116    2.1355   -3.5804 H   0  0  0  0  0  0  0  0  0  0  0  0
    1.4170    3.4145   -2.7071 H   0  0  0  0  0  0  0  0  0  0  0  0
   -0.2505    1.8823   -3.4821 H   0  0  0  0  0  0  0  0  0  0  0  0
    0.7146    0.4583   -3.0448 H   0  0  0  0  0  0  0  0  0  0  0  0
    0.1018   -0.0902    0.0219 H   0  0  0  0  0  0  0  0  0  0  0  0
   -0.3284   -0.7057   -1.5887 H   0  0  0  0  0  0  0  0  0  0  0  0
   -2.2460    0.7750    0.2778 H   0  0  0  0  0  0  0  0  0  0  0  0
   -1.9660   -2.2376   -0.3727 H   0  0  0  0  0  0  0  0  0  0  0  0
   -1.4934   -1.4377    1.1497 H   0  0  0  0  0  0  0  0  0  0  0  0
   -3.4968   -2.1400    1.9025 H   0  0  0  0  0  0  0  0  0  0  0  0
   -4.1754   -2.4086    0.2992 H   0  0  0  0  0  0  0  0  0  0  0  0
   -3.9661    0.3012    1.7829 H   0  0  0  0  0  0  0  0  0  0  0  0
   -5.4170   -0.7130    1.6615 H   0  0  0  0  0  0  0  0  0  0  0  0
   -6.0449    0.2899   -0.2652 H   0  0  0  0  0  0  0  0  0  0  0  0
   -4.6723    1.4126   -0.1077 H   0  0  0  0  0  0  0  0  0  0  0  0
   -4.5567   -1.2556   -1.5218 H   0  0  0  0  0  0  0  0  0  0  0  0
   -2.5841   -0.5541   -2.4928 H   0  0  0  0  0  0  0  0  0  0  0  0
   -2.8974    1.1426   -2.0356 H   0  0  0  0  0  0  0  0  0  0  0  0
   -0.0258    3.4458   -0.7497 H   0  0  0  0  0  0  0  0  0  0  0  0
   -0.3886    2.3010    0.5587 H   0  0  0  0  0  0  0  0  0  0  0  0
    1.8437    1.4144    0.5944 H   0  0  0  0  0  0  0  0  0  0  0  0
    2.0287    3.1678    0.4223 H   0  0  0  0  0  0  0  0  0  0  0  0
  1  2  2  0
  2  3  1  0
  3  4  2  0
  4  5  1  0
  5  6  2  0
  4  7  1  0
  7  8  2  0
  8  9  1  0
  9 10  1  0
 10 11  2  0
 10 12  1  0
 12 13  1  0
 13 14  1  0
 14 15  1  0
 15 16  1  0
 16 17  1  0
 17 18  1  0
 18 19  1  0
 19 20  1  0
 20 21  1  0
 21 22  1  0
 22 23  1  0
 15 24  1  0
 24 25  1  0
  1  6  1  0
 11  7  1  0
 25 12  1  0
 23 17  1  0
  1 26  1  0
  2 27  1  0
  3 28  1  0
  5 29  1  0
  6 30  1  0
 12 31  1  0
 13 32  1  0
 13 33  1  0
 14 34  1  0
 14 35  1  0
 16 36  1  0
 16 37  1  0
 17 38  1  0
 18 39  1  0
 18 40  1  0
 19 41  1  0
 19 42  1  0
 20 43  1  0
 20 44  1  0
 21 45  1  0
 21 46  1  0
 22 47  1  0
 23 48  1  0
 23 49  1  0
 24 50  1  0
 24 51  1  0
 25 52  1  0
 25 53  1  0
M  END
$$$$
