
     RDKit          3D

 49 51  0  0  0  0  0  0  0  0999 V2000
   -4.5720    0.6491    0.3291 C   0  0  0  0  0  0  0  0  0  0  0  0
   -3.9367    1.5553    1.3018 N   0  0  0  0  0  0  0  0  0  0  0  0
   -4.5179    1.3304    2.6356 C   0  0  0  0  0  0  0  0  0  0  0  0
   -4.1007    2.9659    0.8796 C   0  0  0  0  0  0  0  0  0  0  0  0
   -2.9867    3.8532    1.4569 C   0  0  0  0  0  0  0  0  0  0  0  0
   -1.6224    3.3500    1.0579 C   0  0  0  0  0  0  0  0  0  0  0  0
   -1.0760    3.6962   -0.1886 C   0  0  0  0  0  0  0  0  0  0  0  0
    0.1625    3.1802   -0.5845 C   0  0  0  0  0  0  0  0  0  0  0  0
    0.8654    2.3008    0.2552 C   0  0  0  0  0  0  0  0  0  0  0  0
    0.3183    1.9544    1.5015 C   0  0  0  0  0  0  0  0  0  0  0  0
   -0.9177    2.4728    1.8986 C   0  0  0  0  0  0  0  0  0  0  0  0
    2.1795    1.7142   -0.1930 C   0  0  0  0  0  0  0  0  0  0  0  0
    1.9933    0.8856   -1.3837 N   0  0  0  0  0  0  0  0  0  0  0  0
    1.2377   -0.3353   -1.3679 C   0  0  0  0  0  0  0  0  0  0  0  0
    0.6439   -0.7048   -0.3159 O   0  0  0  0  0  0  0  0  0  0  0  0
    1.1496   -1.1852   -2.6011 C   0  0  0  0  0  0  0  0  0  0  0  0
    1.7378   -2.5464   -2.3433 C   0  0  0  0  0  0  0  0  0  0  0  0
    0.8926   -3.6465   -2.0569 C   0  0  0  0  0  0  0  0  0  0  0  0
    1.4362   -4.9114   -1.7796 C   0  0  0  0  0  0  0  0  0  0  0  0
    2.8224   -5.0478   -1.7849 C   0  0  0  0  0  0  0  0  0  0  0  0
    3.7376   -6.4232   -1.4799 S   0  0  0  0  0  0  0  0  0  0  0  0
    5.2365   -5.6620   -1.6880 C   0  0  0  0  0  0  0  0  0  0  0  0
    5.0263   -4.3179   -1.9992 C   0  0  0  0  0  0  0  0  0  0  0  0
    3.6674   -3.9815   -2.0524 C   0  0  0  0  0  0  0  0  0  0  0  0
    3.1404   -2.7174   -2.3339 C   0  0  0  0  0  0  0  0  0  0  0  0
   -4.0795    0.7477   -0.6626 H   0  0  0  0  0  0  0  0  0  0  0  0
   -5.6587    0.8724    0.2218 H   0  0  0  0  0  0  0  0  0  0  0  0
   -4.4452   -0.4106    0.6469 H   0  0  0  0  0  0  0  0  0  0  0  0
   -5.6164    1.5223    2.6369 H   0  0  0  0  0  0  0  0  0  0  0  0
   -4.0334    1.9883    3.3897 H   0  0  0  0  0  0  0  0  0  0  0  0
   -4.3333    0.2808    2.9577 H   0  0  0  0  0  0  0  0  0  0  0  0
   -5.0935    3.3674    1.1861 H   0  0  0  0  0  0  0  0  0  0  0  0
   -4.0509    3.0556   -0.2303 H   0  0  0  0  0  0  0  0  0  0  0  0
   -3.1243    4.8916    1.0811 H   0  0  0  0  0  0  0  0  0  0  0  0
   -3.0694    3.9075    2.5629 H   0  0  0  0  0  0  0  0  0  0  0  0
   -1.6137    4.3580   -0.8572 H   0  0  0  0  0  0  0  0  0  0  0  0
    0.5677    3.4531   -1.5517 H   0  0  0  0  0  0  0  0  0  0  0  0
    0.8410    1.2719    2.1611 H   0  0  0  0  0  0  0  0  0  0  0  0
   -1.3313    2.1802    2.8562 H   0  0  0  0  0  0  0  0  0  0  0  0
    2.6485    1.1010    0.6105 H   0  0  0  0  0  0  0  0  0  0  0  0
    2.8821    2.5468   -0.4260 H   0  0  0  0  0  0  0  0  0  0  0  0
    2.4559    1.1887   -2.2709 H   0  0  0  0  0  0  0  0  0  0  0  0
    1.6924   -0.7051   -3.4420 H   0  0  0  0  0  0  0  0  0  0  0  0
    0.0847   -1.2686   -2.9069 H   0  0  0  0  0  0  0  0  0  0  0  0
   -0.1840   -3.5214   -2.0452 H   0  0  0  0  0  0  0  0  0  0  0  0
    0.7936   -5.7562   -1.5617 H   0  0  0  0  0  0  0  0  0  0  0  0
    6.2044   -6.1390   -1.5932 H   0  0  0  0  0  0  0  0  0  0  0  0
    5.8311   -3.6139   -2.1777 H   0  0  0  0  0  0  0  0  0  0  0  0
    3.8013   -1.8811   -2.5344 H   0  0  0  0  0  0  0  0  0  0  0  0
  1  2  1  0
  2  3  1  0
  2  4  1  0
  4  5  1  0
  5  6  1  0
  6  7  2  0
  7  8  1  0
  8  9  2  0
  9 10  1  0
 10 11  2  0
  9 12  1  0
 12 13  1  0
 13 14  1  0
 14 15  2  0
 14 16  1  0
 16 17  1  0
 17 18  2  0
 18 19  1  0
 19 20  2  0
 20 21  1  0
 21 22  1  0
 22 23  2  0
 23 24  1  0
 24 25  2  0
  6 11  1  0
 17 25  1  0
 20 24  1  0
  1 26  1  0
  1 27  1  0
  1 28  1  0
  3 29  1  0
  3 30  1  0
  3 31  1  0
  4 32  1  0
  4 33  1  0
  5 34  1  0
  5 35  1  0
  7 36  1  0
  8 37  1  0
 10 38  1  0
 11 39  1  0
 12 40  1  0
 12 41  1  0
 13 42  1  0
 16 43  1  0
 16 44  1  0
 18 45  1  0
 19 46  1  0
 22 47  1  0
 23 48  1  0
 25 49  1  0
M  END
$$$$
