
     RDKit          3D

 40 42  0  0  0  0  0  0  0  0999 V2000
   -4.0026   -3.7164    1.4345 C   0  0  0  0  0  0  0  0  0  0  0  0
   -3.3126   -2.7981    0.5955 O   0  0  0  0  0  0  0  0  0  0  0  0
   -2.0908   -3.1008   -0.0137 C   0  0  0  0  0  0  0  0  0  0  0  0
   -1.5455   -4.2193    0.1994 O   0  0  0  0  0  0  0  0  0  0  0  0
   -1.4085   -2.1035   -0.8784 C   0  0  0  0  0  0  0  0  0  0  0  0
   -0.0071   -2.1662   -0.9929 C   0  0  0  0  0  0  0  0  0  0  0  0
    0.6923   -1.2379   -1.7635 C   0  0  0  0  0  0  0  0  0  0  0  0
    0.0074   -0.2304   -2.4502 C   0  0  0  0  0  0  0  0  0  0  0  0
   -1.3872   -0.1522   -2.3459 C   0  0  0  0  0  0  0  0  0  0  0  0
   -2.1100   -1.0891   -1.5853 C   0  0  0  0  0  0  0  0  0  0  0  0
   -3.6123   -0.9772   -1.5525 C   0  0  0  0  0  0  0  0  0  0  0  0
    0.7683    0.8069   -3.2289 C   0  0  0  0  0  0  0  0  0  0  0  0
    1.0680    1.9458   -2.3696 N   0  0  0  0  0  0  0  0  0  0  0  0
    2.0900    2.0489   -1.5039 C   0  0  0  0  0  0  0  0  0  0  0  0
    1.9027    3.2400   -0.8392 C   0  0  0  0  0  0  0  0  0  0  0  0
    2.7149    3.7583    0.3026 C   0  0  0  0  0  0  0  0  0  0  0  0
    2.2997    3.1056    1.5389 N   0  0  0  0  0  0  0  0  0  0  0  0
    1.2857    3.4916    2.3352 C   0  0  0  0  0  0  0  0  0  0  0  0
    1.1636    2.5726    3.3545 C   0  0  0  0  0  0  0  0  0  0  0  0
    2.1466    1.6342    3.1023 C   0  0  0  0  0  0  0  0  0  0  0  0
    2.8211    1.9747    1.9869 N   0  0  0  0  0  0  0  0  0  0  0  0
    0.7672    3.8097   -1.2916 N   0  0  0  0  0  0  0  0  0  0  0  0
    0.2812    3.0002   -2.2221 N   0  0  0  0  0  0  0  0  0  0  0  0
   -3.3735   -3.9764    2.3121 H   0  0  0  0  0  0  0  0  0  0  0  0
   -4.2530   -4.6366    0.8655 H   0  0  0  0  0  0  0  0  0  0  0  0
   -4.9423   -3.2477    1.7918 H   0  0  0  0  0  0  0  0  0  0  0  0
    0.5562   -2.9252   -0.4637 H   0  0  0  0  0  0  0  0  0  0  0  0
    1.7725   -1.2989   -1.8154 H   0  0  0  0  0  0  0  0  0  0  0  0
   -1.9111    0.6416   -2.8658 H   0  0  0  0  0  0  0  0  0  0  0  0
   -3.9372   -0.5738   -0.5708 H   0  0  0  0  0  0  0  0  0  0  0  0
   -4.0760   -1.9706   -1.7282 H   0  0  0  0  0  0  0  0  0  0  0  0
   -3.9883   -0.2964   -2.3458 H   0  0  0  0  0  0  0  0  0  0  0  0
    0.1714    1.1458   -4.1036 H   0  0  0  0  0  0  0  0  0  0  0  0
    1.7140    0.3779   -3.6273 H   0  0  0  0  0  0  0  0  0  0  0  0
    2.8670    1.3115   -1.3473 H   0  0  0  0  0  0  0  0  0  0  0  0
    2.5814    4.8584    0.3901 H   0  0  0  0  0  0  0  0  0  0  0  0
    3.7919    3.5580    0.1155 H   0  0  0  0  0  0  0  0  0  0  0  0
    0.6713    4.3690    2.1797 H   0  0  0  0  0  0  0  0  0  0  0  0
    0.4483    2.5777    4.1658 H   0  0  0  0  0  0  0  0  0  0  0  0
    2.3507    0.7507    3.6919 H   0  0  0  0  0  0  0  0  0  0  0  0
  1  2  1  0
  2  3  1  0
  3  4  2  0
  3  5  1  0
  5  6  2  0
  6  7  1  0
  7  8  2  0
  8  9  1  0
  9 10  2  0
 10 11  1  0
  8 12  1  0
 12 13  1  0
 13 14  1  0
 14 15  2  0
 15 16  1  0
 16 17  1  0
 17 18  1  0
 18 19  2  0
 19 20  1  0
 20 21  2  0
 15 22  1  0
 22 23  2  0
  5 10  1  0
 23 13  1  0
 21 17  1  0
  1 24  1  0
  1 25  1  0
  1 26  1  0
  6 27  1  0
  7 28  1  0
  9 29  1  0
 11 30  1  0
 11 31  1  0
 11 32  1  0
 12 33  1  0
 12 34  1  0
 14 35  1  0
 16 36  1  0
 16 37  1  0
 18 38  1  0
 19 39  1  0
 20 40  1  0
M  END
$$$$
