
     RDKit          3D

 34 35  0  0  0  0  0  0  0  0999 V2000
    0.7162   -5.4774    3.2404 N   0  0  0  0  0  0  0  0  0  0  0  0
    0.2648   -4.2205    2.7354 C   0  0  0  0  0  0  0  0  0  0  0  0
   -1.0874   -3.8715    2.8060 C   0  0  0  0  0  0  0  0  0  0  0  0
   -1.5033   -2.6369    2.3056 C   0  0  0  0  0  0  0  0  0  0  0  0
   -0.5743   -1.7567    1.7267 C   0  0  0  0  0  0  0  0  0  0  0  0
    0.7766   -2.1458    1.6898 C   0  0  0  0  0  0  0  0  0  0  0  0
    1.1569   -3.3527    2.1878 N   0  0  0  0  0  0  0  0  0  0  0  0
   -1.0236   -0.4450    1.2008 C   0  0  0  0  0  0  0  0  0  0  0  0
   -2.0406    0.1001    1.7107 O   0  0  0  0  0  0  0  0  0  0  0  0
   -0.3180    0.2121    0.1311 N   0  0  0  0  0  0  0  0  0  0  0  0
   -0.7387    1.4589   -0.4498 C   0  0  0  0  0  0  0  0  0  0  0  0
   -2.0926    1.6882   -0.7523 C   0  0  0  0  0  0  0  0  0  0  0  0
   -2.4919    2.8869   -1.3448 C   0  0  0  0  0  0  0  0  0  0  0  0
   -1.5450    3.8647   -1.6522 C   0  0  0  0  0  0  0  0  0  0  0  0
   -2.0516    5.3704   -2.3967 Cl  0  0  0  0  0  0  0  0  0  0  0  0
   -0.1932    3.6418   -1.3750 C   0  0  0  0  0  0  0  0  0  0  0  0
    0.2241    2.4332   -0.7804 C   0  0  0  0  0  0  0  0  0  0  0  0
    1.5722    2.1669   -0.4795 O   0  0  0  0  0  0  0  0  0  0  0  0
    2.6976    2.9517   -0.8779 C   0  0  0  0  0  0  0  0  0  0  0  0
    3.0923    2.6525   -2.3239 C   0  0  0  0  0  0  0  0  0  0  0  0
    4.2411    3.3535   -2.6412 F   0  0  0  0  0  0  0  0  0  0  0  0
    3.3362    1.2989   -2.4711 F   0  0  0  0  0  0  0  0  0  0  0  0
    2.0855    3.0278   -3.1932 F   0  0  0  0  0  0  0  0  0  0  0  0
    0.0472   -6.1566    3.6668 H   0  0  0  0  0  0  0  0  0  0  0  0
    1.7273   -5.7324    3.1878 H   0  0  0  0  0  0  0  0  0  0  0  0
   -1.8106   -4.5485    3.2433 H   0  0  0  0  0  0  0  0  0  0  0  0
   -2.5530   -2.3751    2.3595 H   0  0  0  0  0  0  0  0  0  0  0  0
    1.5385   -1.4883    1.2964 H   0  0  0  0  0  0  0  0  0  0  0  0
    0.5680   -0.2051   -0.2288 H   0  0  0  0  0  0  0  0  0  0  0  0
   -2.8384    0.9297   -0.5543 H   0  0  0  0  0  0  0  0  0  0  0  0
   -3.5376    3.0511   -1.5719 H   0  0  0  0  0  0  0  0  0  0  0  0
    0.5156    4.4169   -1.6261 H   0  0  0  0  0  0  0  0  0  0  0  0
    3.5524    2.6778   -0.2240 H   0  0  0  0  0  0  0  0  0  0  0  0
    2.5121    4.0349   -0.7240 H   0  0  0  0  0  0  0  0  0  0  0  0
  1  2  1  0
  2  3  2  0
  3  4  1  0
  4  5  2  0
  5  6  1  0
  6  7  2  0
  5  8  1  0
  8  9  2  0
  8 10  1  0
 10 11  1  0
 11 12  2  0
 12 13  1  0
 13 14  2  0
 14 15  1  0
 14 16  1  0
 16 17  2  0
 17 18  1  0
 18 19  1  0
 19 20  1  0
 20 21  1  0
 20 22  1  0
 20 23  1  0
  2  7  1  0
 11 17  1  0
  1 24  1  0
  1 25  1  0
  3 26  1  0
  4 27  1  0
  6 28  1  0
 10 29  1  0
 12 30  1  0
 13 31  1  0
 16 32  1  0
 19 33  1  0
 19 34  1  0
M  END
$$$$
