
     RDKit          3D

 44 47  0  0  0  0  0  0  0  0999 V2000
   -3.2294   -3.1969    0.9519 C   0  0  0  0  0  0  0  0  0  0  0  0
   -1.9204   -2.4238    1.1493 C   0  0  0  0  0  0  0  0  0  0  0  0
   -1.7859   -1.9397    2.6000 C   0  0  0  0  0  0  0  0  0  0  0  0
   -0.5362   -1.0579    2.8086 C   0  0  0  0  0  0  0  0  0  0  0  0
    0.6435   -1.3590    1.8277 C   0  0  0  0  0  0  0  0  0  0  0  0
    1.9979   -1.0291    2.4956 C   0  0  0  0  0  0  0  0  0  0  0  0
    2.9109   -0.5491    1.3776 C   0  0  0  0  0  0  0  0  0  0  0  0
    2.0239   -0.1040    0.3184 N   0  0  0  0  0  0  0  0  0  0  0  0
    0.6331   -0.4455    0.5757 C   0  0  0  0  0  0  0  0  0  0  0  0
    2.5077    0.5624   -0.8644 C   0  0  0  0  0  0  0  0  0  0  0  0
    3.7511    0.6763   -1.0417 O   0  0  0  0  0  0  0  0  0  0  0  0
    1.5939    1.1256   -1.8799 C   0  0  0  0  0  0  0  0  0  0  0  0
    1.9819    1.7200   -3.0683 C   0  0  0  0  0  0  0  0  0  0  0  0
    0.8168    2.1004   -3.7005 C   0  0  0  0  0  0  0  0  0  0  0  0
   -0.2067    1.7153   -2.8574 C   0  0  0  0  0  0  0  0  0  0  0  0
    0.2841    1.1414   -1.7845 O   0  0  0  0  0  0  0  0  0  0  0  0
   -1.6397    1.9037   -3.0978 C   0  0  0  0  0  0  0  0  0  0  0  0
   -2.1591    2.4923   -4.1931 N   0  0  0  0  0  0  0  0  0  0  0  0
   -3.4686    2.4526   -4.0070 N   0  0  0  0  0  0  0  0  0  0  0  0
   -3.7245    1.8657   -2.8504 N   0  0  0  0  0  0  0  0  0  0  0  0
   -2.6046    1.5058   -2.2480 N   0  0  0  0  0  0  0  0  0  0  0  0
    0.6200   -2.8560    1.4118 C   0  0  0  0  0  0  0  0  0  0  0  0
   -0.7043   -3.2900    0.7421 C   0  0  0  0  0  0  0  0  0  0  0  0
   -3.3159   -3.5355   -0.1027 H   0  0  0  0  0  0  0  0  0  0  0  0
   -3.2667   -4.0848    1.6192 H   0  0  0  0  0  0  0  0  0  0  0  0
   -4.0981   -2.5426    1.1785 H   0  0  0  0  0  0  0  0  0  0  0  0
   -1.9672   -1.5298    0.4891 H   0  0  0  0  0  0  0  0  0  0  0  0
   -2.6889   -1.3603    2.8933 H   0  0  0  0  0  0  0  0  0  0  0  0
   -1.7255   -2.8249    3.2723 H   0  0  0  0  0  0  0  0  0  0  0  0
   -0.2007   -1.2201    3.8572 H   0  0  0  0  0  0  0  0  0  0  0  0
   -0.8288    0.0128    2.7502 H   0  0  0  0  0  0  0  0  0  0  0  0
    1.8770   -0.1952    3.2235 H   0  0  0  0  0  0  0  0  0  0  0  0
    2.4401   -1.8960    3.0340 H   0  0  0  0  0  0  0  0  0  0  0  0
    3.5522    0.2888    1.7283 H   0  0  0  0  0  0  0  0  0  0  0  0
    3.5457   -1.3829    1.0068 H   0  0  0  0  0  0  0  0  0  0  0  0
    0.2068   -0.9589   -0.3111 H   0  0  0  0  0  0  0  0  0  0  0  0
    0.0646    0.4922    0.7528 H   0  0  0  0  0  0  0  0  0  0  0  0
    2.9910    1.8595   -3.4334 H   0  0  0  0  0  0  0  0  0  0  0  0
    0.7285    2.5964   -4.6582 H   0  0  0  0  0  0  0  0  0  0  0  0
   -4.6814    1.7076   -2.4652 H   0  0  0  0  0  0  0  0  0  0  0  0
    1.4660   -3.0824    0.7256 H   0  0  0  0  0  0  0  0  0  0  0  0
    0.7676   -3.4793    2.3223 H   0  0  0  0  0  0  0  0  0  0  0  0
   -0.8857   -4.3565    1.0028 H   0  0  0  0  0  0  0  0  0  0  0  0
   -0.5915   -3.2467   -0.3633 H   0  0  0  0  0  0  0  0  0  0  0  0
  1  2  1  0
  2  3  1  0
  3  4  1  0
  4  5  1  0
  5  6  1  0
  6  7  1  0
  7  8  1  0
  8  9  1  0
  8 10  1  0
 10 11  2  0
 10 12  1  0
 12 13  2  0
 13 14  1  0
 14 15  2  0
 15 16  1  0
 15 17  1  0
 17 18  1  0
 18 19  2  0
 19 20  1  0
 20 21  1  0
  5 22  1  0
 22 23  1  0
 23  2  1  0
  9  5  1  0
 16 12  1  0
 17 21  2  0
  1 24  1  0
  1 25  1  0
  1 26  1  0
  2 27  1  0
  3 28  1  0
  3 29  1  0
  4 30  1  0
  4 31  1  0
  6 32  1  0
  6 33  1  0
  7 34  1  0
  7 35  1  0
  9 36  1  0
  9 37  1  0
 13 38  1  0
 14 39  1  0
 20 40  1  0
 22 41  1  0
 22 42  1  0
 23 43  1  0
 23 44  1  0
M  END
$$$$
