
     RDKit          3D

  0  0  0  0  0  0  0  0  0  0999 V3000
M  V30 BEGIN CTAB
M  V30 COUNTS 40 43 0 0 0
M  V30 BEGIN ATOM
M  V30 1 O 0.026515 0.513158 -1.926724 0
M  V30 2 C -0.867172 -0.010051 -1.207940 0
M  V30 3 N -0.602655 -0.287511 0.176180 0
M  V30 4 C 0.700238 -0.004283 0.790458 0
M  V30 5 C 1.822685 -0.853858 0.200076 0
M  V30 6 C 2.883468 -0.910030 1.292353 0
M  V30 7 C 2.132570 -0.783134 2.622039 0 CFG=2
M  V30 8 C 1.553650 -2.100111 3.140524 0
M  V30 9 C 0.154608 -1.626130 2.777510 0
M  V30 10 C 0.729428 -0.283802 2.301876 0 CFG=2
M  V30 11 C -2.190256 -0.305762 -1.792886 0
M  V30 12 C -3.395913 -0.334309 -1.119074 0
M  V30 13 N -4.382466 -0.504924 -2.015657 0
M  V30 14 N -3.873434 -0.590660 -3.233574 0
M  V30 15 C -2.533649 -0.477993 -3.131275 0
M  V30 16 C -1.630284 -0.578055 -4.296255 0
M  V30 17 C -0.425661 -1.299182 -4.218458 0
M  V30 18 C 0.405952 -1.405992 -5.337352 0
M  V30 19 C 0.036391 -0.808146 -6.544848 0
M  V30 20 C -1.170087 -0.108842 -6.637910 0
M  V30 21 F -1.532663 0.462589 -7.812751 0
M  V30 22 C -2.004817 0.000008 -5.520691 0
M  V30 23 H -1.387260 -0.633714 0.771153 0
M  V30 24 H 0.946630 1.070563 0.637414 0
M  V30 25 H 1.455175 -1.881697 -0.016141 0
M  V30 26 H 2.232510 -0.405358 -0.730329 0
M  V30 27 H 3.568425 -0.041000 1.182447 0
M  V30 28 H 3.482524 -1.844396 1.233433 0
M  V30 29 H 2.659714 -0.187966 3.400067 0
M  V30 30 H 1.686758 -2.212307 4.238675 0
M  V30 31 H 1.863191 -2.998483 2.562136 0
M  V30 32 H -0.499128 -1.513992 3.669620 0
M  V30 33 H -0.289599 -2.254028 1.975315 0
M  V30 34 H 0.412378 0.576790 2.931638 0
M  V30 35 H -3.554844 -0.196382 -0.057852 0
M  V30 36 H -5.403096 -0.551437 -1.802175 0
M  V30 37 H -0.137195 -1.795310 -3.300373 0
M  V30 38 H 1.333639 -1.959527 -5.270230 0
M  V30 39 H 0.681667 -0.893966 -7.409637 0
M  V30 40 H -2.937272 0.544535 -5.607133 0
M  V30 END ATOM
M  V30 BEGIN BOND
M  V30 1 2 1 2
M  V30 2 1 2 3
M  V30 3 1 3 4
M  V30 4 1 4 5
M  V30 5 1 5 6
M  V30 6 1 6 7
M  V30 7 1 7 8
M  V30 8 1 8 9
M  V30 9 1 9 10
M  V30 10 1 2 11
M  V30 11 2 11 12
M  V30 12 1 12 13
M  V30 13 1 13 14
M  V30 14 2 14 15
M  V30 15 1 15 16
M  V30 16 2 16 17
M  V30 17 1 17 18
M  V30 18 2 18 19
M  V30 19 1 19 20
M  V30 20 1 20 21
M  V30 21 2 20 22
M  V30 22 1 10 4
M  V30 23 1 10 7
M  V30 24 1 15 11
M  V30 25 1 16 22
M  V30 26 1 3 23
M  V30 27 1 4 24
M  V30 28 1 5 25
M  V30 29 1 5 26
M  V30 30 1 6 27
M  V30 31 1 6 28
M  V30 32 1 7 29 CFG=1
M  V30 33 1 8 30
M  V30 34 1 8 31
M  V30 35 1 9 32
M  V30 36 1 9 33
M  V30 37 1 10 34 CFG=1
M  V30 38 1 12 35
M  V30 39 1 13 36
M  V30 40 1 17 37
M  V30 41 1 18 38
M  V30 42 1 19 39
M  V30 43 1 22 40
M  V30 END BOND
M  V30 BEGIN COLLECTION
M  V30 MDLV30/STERAC1 ATOMS=(2 7 10)
M  V30 END COLLECTION
M  V30 END CTAB
M  END
>  <_CXSMILES_Data>  (1) 
|&1:6,9,r|

$$$$
