
     RDKit          3D

 49 52  0  0  0  0  0  0  0  0999 V2000
    0.0132   -1.8547    3.0838 C   0  0  0  0  0  0  0  0  0  0  0  0
   -0.3604   -0.7194    2.1911 C   0  0  0  0  0  0  0  0  0  0  0  0
    0.5514   -0.2058    1.3314 N   0  0  0  0  0  0  0  0  0  0  0  0
    0.2391    0.7970    0.4692 C   0  0  0  0  0  0  0  0  0  0  0  0
   -1.0617    1.3512    0.4936 C   0  0  0  0  0  0  0  0  0  0  0  0
   -1.3887    2.5913   -0.2994 C   0  0  0  0  0  0  0  0  0  0  0  0
   -2.0195    0.7453    1.3431 C   0  0  0  0  0  0  0  0  0  0  0  0
   -1.6350   -0.2591    2.1742 N   0  0  0  0  0  0  0  0  0  0  0  0
   -3.3925    1.1634    1.3707 N   0  0  0  0  0  0  0  0  0  0  0  0
   -4.1938    1.3744    0.3075 C   0  0  0  0  0  0  0  0  0  0  0  0
   -5.4614    1.6555    0.7678 C   0  0  0  0  0  0  0  0  0  0  0  0
   -5.3614    1.5775    2.1430 C   0  0  0  0  0  0  0  0  0  0  0  0
   -4.0975    1.2628    2.4863 N   0  0  0  0  0  0  0  0  0  0  0  0
    1.2514    1.2591   -0.4481 N   0  0  0  0  0  0  0  0  0  0  0  0
    0.9841    1.2263   -1.9011 C   0  0  0  0  0  0  0  0  0  0  0  0
    2.2218    0.8671   -2.7453 C   0  0  0  0  0  0  0  0  0  0  0  0
    2.8027   -0.5196   -2.4245 C   0  0  0  0  0  0  0  0  0  0  0  0
    2.8836   -0.7826   -0.9786 N   0  0  0  0  0  0  0  0  0  0  0  0
    3.4881    0.2125   -0.0757 C   0  0  0  0  0  0  0  0  0  0  0  0
    2.6129    1.4756    0.0642 C   0  0  0  0  0  0  0  0  0  0  0  0
    2.4388   -2.0527   -0.4600 C   0  0  0  0  0  0  0  0  0  0  0  0
    1.1481   -2.5251   -0.7460 C   0  0  0  0  0  0  0  0  0  0  0  0
    0.7246   -3.7437   -0.2117 C   0  0  0  0  0  0  0  0  0  0  0  0
    1.5605   -4.4704    0.5760 N   0  0  0  0  0  0  0  0  0  0  0  0
    2.8178   -4.0425    0.8648 C   0  0  0  0  0  0  0  0  0  0  0  0
    3.2807   -2.8284    0.3520 C   0  0  0  0  0  0  0  0  0  0  0  0
    1.1126   -1.8764    3.2408 H   0  0  0  0  0  0  0  0  0  0  0  0
   -0.3047   -2.8104    2.6179 H   0  0  0  0  0  0  0  0  0  0  0  0
   -0.4868   -1.7433    4.0688 H   0  0  0  0  0  0  0  0  0  0  0  0
   -1.7350    2.3106   -1.3154 H   0  0  0  0  0  0  0  0  0  0  0  0
   -2.1715    3.1946    0.2049 H   0  0  0  0  0  0  0  0  0  0  0  0
   -0.4992    3.2503   -0.3804 H   0  0  0  0  0  0  0  0  0  0  0  0
   -3.8942    1.2930   -0.7289 H   0  0  0  0  0  0  0  0  0  0  0  0
   -6.3456    1.8641    0.1808 H   0  0  0  0  0  0  0  0  0  0  0  0
   -6.1666    1.7237    2.8502 H   0  0  0  0  0  0  0  0  0  0  0  0
    0.1837    0.4865   -2.1237 H   0  0  0  0  0  0  0  0  0  0  0  0
    0.6237    2.2237   -2.2273 H   0  0  0  0  0  0  0  0  0  0  0  0
    3.0082    1.6420   -2.6293 H   0  0  0  0  0  0  0  0  0  0  0  0
    1.9320    0.8845   -3.8184 H   0  0  0  0  0  0  0  0  0  0  0  0
    2.1808   -1.2897   -2.9303 H   0  0  0  0  0  0  0  0  0  0  0  0
    3.8217   -0.5931   -2.8612 H   0  0  0  0  0  0  0  0  0  0  0  0
    3.6326   -0.2189    0.9385 H   0  0  0  0  0  0  0  0  0  0  0  0
    4.4950    0.4917   -0.4543 H   0  0  0  0  0  0  0  0  0  0  0  0
    2.5719    1.7829    1.1330 H   0  0  0  0  0  0  0  0  0  0  0  0
    3.0813    2.3288   -0.4707 H   0  0  0  0  0  0  0  0  0  0  0  0
    0.4674   -1.9433   -1.3537 H   0  0  0  0  0  0  0  0  0  0  0  0
   -0.2724   -4.1090   -0.4184 H   0  0  0  0  0  0  0  0  0  0  0  0
    3.4600   -4.6460    1.4922 H   0  0  0  0  0  0  0  0  0  0  0  0
    4.2877   -2.5017    0.5776 H   0  0  0  0  0  0  0  0  0  0  0  0
  1  2  1  0
  2  3  2  0
  3  4  1  0
  4  5  2  0
  5  6  1  0
  5  7  1  0
  7  8  2  0
  7  9  1  0
  9 10  1  0
 10 11  2  0
 11 12  1  0
 12 13  2  0
  4 14  1  0
 14 15  1  0
 15 16  1  0
 16 17  1  0
 17 18  1  0
 18 19  1  0
 19 20  1  0
 18 21  1  0
 21 22  2  0
 22 23  1  0
 23 24  2  0
 24 25  1  0
 25 26  2  0
  8  2  1  0
 13  9  1  0
 20 14  1  0
 21 26  1  0
  1 27  1  0
  1 28  1  0
  1 29  1  0
  6 30  1  0
  6 31  1  0
  6 32  1  0
 10 33  1  0
 11 34  1  0
 12 35  1  0
 15 36  1  0
 15 37  1  0
 16 38  1  0
 16 39  1  0
 17 40  1  0
 17 41  1  0
 19 42  1  0
 19 43  1  0
 20 44  1  0
 20 45  1  0
 22 46  1  0
 23 47  1  0
 25 48  1  0
 26 49  1  0
M  END
$$$$
