
     RDKit          3D

 55 58  0  0  0  0  0  0  0  0999 V2000
   -0.3668   -1.2377   -3.7114 O   0  0  0  0  0  0  0  0  0  0  0  0
   -0.0896   -1.3243   -2.4821 C   0  0  0  0  0  0  0  0  0  0  0  0
   -0.9013   -2.1528   -1.6306 N   0  0  0  0  0  0  0  0  0  0  0  0
   -1.9808   -2.9878   -2.1736 C   0  0  0  0  0  0  0  0  0  0  0  0
   -3.2022   -2.1402   -2.5073 C   0  0  0  0  0  0  0  0  0  0  0  0
   -4.0717   -2.1214   -1.2447 C   0  0  0  0  0  0  0  0  0  0  0  0
   -3.8165   -0.9026   -0.3489 C   0  0  0  0  0  0  0  0  0  0  0  0
   -2.9851   -1.3402    0.7685 N   0  0  0  0  0  0  0  0  0  0  0  0
   -3.2863   -2.7556    0.9565 C   0  0  0  0  0  0  0  0  0  0  0  0
   -3.6615   -3.3269   -0.4113 C   0  0  0  0  0  0  0  0  0  0  0  0
   -2.4826   -3.9919   -1.1384 C   0  0  0  0  0  0  0  0  0  0  0  0
    1.0601   -0.5526   -1.9471 C   0  0  0  0  0  0  0  0  0  0  0  0
    1.7274   -0.9463   -0.7734 C   0  0  0  0  0  0  0  0  0  0  0  0
    2.8118   -0.2071   -0.2898 C   0  0  0  0  0  0  0  0  0  0  0  0
    3.2563    0.9385   -0.9769 C   0  0  0  0  0  0  0  0  0  0  0  0
    2.6071    1.3157   -2.1560 C   0  0  0  0  0  0  0  0  0  0  0  0
    1.5207    0.5826   -2.6378 C   0  0  0  0  0  0  0  0  0  0  0  0
    4.3360    1.7252   -0.5427 O   0  0  0  0  0  0  0  0  0  0  0  0
    4.9611    1.6805    0.7435 C   0  0  0  0  0  0  0  0  0  0  0  0
    4.2678    2.6131    1.7577 C   0  0  0  0  0  0  0  0  0  0  0  0
    2.8698    2.1066    2.1606 C   0  0  0  0  0  0  0  0  0  0  0  0
    2.2334    3.0366    3.2010 C   0  0  0  0  0  0  0  0  0  0  0  0
    2.1516    4.4740    2.6729 C   0  0  0  0  0  0  0  0  0  0  0  0
    3.5352    4.9881    2.2586 C   0  0  0  0  0  0  0  0  0  0  0  0
    4.1837    4.0580    1.2244 C   0  0  0  0  0  0  0  0  0  0  0  0
   -0.7202   -2.1644   -0.6023 H   0  0  0  0  0  0  0  0  0  0  0  0
   -1.6122   -3.5289   -3.0740 H   0  0  0  0  0  0  0  0  0  0  0  0
   -2.9348   -1.1236   -2.8661 H   0  0  0  0  0  0  0  0  0  0  0  0
   -3.7693   -2.6420   -3.3230 H   0  0  0  0  0  0  0  0  0  0  0  0
   -5.1492   -2.1727   -1.5209 H   0  0  0  0  0  0  0  0  0  0  0  0
   -4.7911   -0.5187    0.0317 H   0  0  0  0  0  0  0  0  0  0  0  0
   -3.3099   -0.0713   -0.8844 H   0  0  0  0  0  0  0  0  0  0  0  0
   -3.2597   -0.8126    1.6310 H   0  0  0  0  0  0  0  0  0  0  0  0
   -4.1537   -2.8693    1.6490 H   0  0  0  0  0  0  0  0  0  0  0  0
   -2.4152   -3.2714    1.4148 H   0  0  0  0  0  0  0  0  0  0  0  0
   -4.5024   -4.0493   -0.3062 H   0  0  0  0  0  0  0  0  0  0  0  0
   -1.6743   -4.3337   -0.4570 H   0  0  0  0  0  0  0  0  0  0  0  0
   -2.8604   -4.8914   -1.6744 H   0  0  0  0  0  0  0  0  0  0  0  0
    1.4379   -1.8403   -0.2372 H   0  0  0  0  0  0  0  0  0  0  0  0
    3.2951   -0.5486    0.6123 H   0  0  0  0  0  0  0  0  0  0  0  0
    2.9430    2.1908   -2.6982 H   0  0  0  0  0  0  0  0  0  0  0  0
    1.0348    0.9105   -3.5484 H   0  0  0  0  0  0  0  0  0  0  0  0
    5.0404    0.6457    1.1329 H   0  0  0  0  0  0  0  0  0  0  0  0
    6.0071    2.0328    0.6179 H   0  0  0  0  0  0  0  0  0  0  0  0
    4.9021    2.6199    2.6732 H   0  0  0  0  0  0  0  0  0  0  0  0
    2.9492    1.0851    2.5902 H   0  0  0  0  0  0  0  0  0  0  0  0
    2.2039    2.0616    1.2733 H   0  0  0  0  0  0  0  0  0  0  0  0
    2.8302    3.0158    4.1390 H   0  0  0  0  0  0  0  0  0  0  0  0
    1.2113    2.6740    3.4389 H   0  0  0  0  0  0  0  0  0  0  0  0
    1.4635    4.5131    1.8000 H   0  0  0  0  0  0  0  0  0  0  0  0
    1.7377    5.1330    3.4667 H   0  0  0  0  0  0  0  0  0  0  0  0
    3.4329    6.0052    1.8238 H   0  0  0  0  0  0  0  0  0  0  0  0
    4.1890    5.0640    3.1555 H   0  0  0  0  0  0  0  0  0  0  0  0
    5.2046    4.4321    0.9956 H   0  0  0  0  0  0  0  0  0  0  0  0
    3.5885    4.0870    0.2845 H   0  0  0  0  0  0  0  0  0  0  0  0
  1  2  2  0
  2  3  1  0
  3  4  1  0
  4  5  1  0
  5  6  1  0
  6  7  1  0
  7  8  1  0
  8  9  1  0
  9 10  1  0
 10 11  1  0
  2 12  1  0
 12 13  2  0
 13 14  1  0
 14 15  2  0
 15 16  1  0
 16 17  2  0
 15 18  1  0
 18 19  1  0
 19 20  1  0
 20 21  1  0
 21 22  1  0
 22 23  1  0
 23 24  1  0
 24 25  1  0
 11  4  1  0
 10  6  1  0
 12 17  1  0
 25 20  1  0
  3 26  1  0
  4 27  1  0
  5 28  1  0
  5 29  1  0
  6 30  1  0
  7 31  1  0
  7 32  1  0
  8 33  1  0
  9 34  1  0
  9 35  1  0
 10 36  1  0
 11 37  1  0
 11 38  1  0
 13 39  1  0
 14 40  1  0
 16 41  1  0
 17 42  1  0
 19 43  1  0
 19 44  1  0
 20 45  1  0
 21 46  1  0
 21 47  1  0
 22 48  1  0
 22 49  1  0
 23 50  1  0
 23 51  1  0
 24 52  1  0
 24 53  1  0
 25 54  1  0
 25 55  1  0
M  END
$$$$
