
     RDKit          3D

 54 58  0  0  0  0  0  0  0  0999 V2000
    0.7576    2.5365   -2.5155 O   0  0  0  0  0  0  0  0  0  0  0  0
    0.6533    1.3465   -2.1118 C   0  0  0  0  0  0  0  0  0  0  0  0
   -0.6720    0.8502   -1.6899 C   0  0  0  0  0  0  0  0  0  0  0  0
   -1.1225   -0.4330   -2.0939 C   0  0  0  0  0  0  0  0  0  0  0  0
   -2.3930   -0.9030   -1.7144 C   0  0  0  0  0  0  0  0  0  0  0  0
   -3.1930   -0.0703   -0.9266 C   0  0  0  0  0  0  0  0  0  0  0  0
   -2.7745    1.1836   -0.5741 C   0  0  0  0  0  0  0  0  0  0  0  0
   -1.5270    1.6843   -0.9372 C   0  0  0  0  0  0  0  0  0  0  0  0
   -3.7519    1.8183    0.0878 N   0  0  0  0  0  0  0  0  0  0  0  0
   -4.7624    0.9197    0.1188 C   0  0  0  0  0  0  0  0  0  0  0  0
   -5.8870    1.1973    0.6128 O   0  0  0  0  0  0  0  0  0  0  0  0
   -4.4514   -0.2763   -0.4685 N   0  0  0  0  0  0  0  0  0  0  0  0
   -5.2775   -1.4856   -0.6895 C   0  0  0  0  0  0  0  0  0  0  0  0
   -4.6443   -2.7384   -0.0725 C   0  0  0  0  0  0  0  0  0  0  0  0
   -5.8008   -3.6441    0.3582 C   0  0  0  0  0  0  0  0  0  0  0  0
   -7.0850   -2.8904    0.0372 C   0  0  0  0  0  0  0  0  0  0  0  0
   -6.6718   -1.4364   -0.0675 C   0  0  0  0  0  0  0  0  0  0  0  0
    1.8225    0.5084   -2.0653 N   0  0  0  0  0  0  0  0  0  0  0  0
    2.0205   -0.5462   -1.0846 C   0  0  0  0  0  0  0  0  0  0  0  0
    3.4106   -1.1038   -1.3544 C   0  0  0  0  0  0  0  0  0  0  0  0
    4.1331   -0.0537   -2.2062 C   0  0  0  0  0  0  0  0  0  0  0  0
    3.0291    0.8049   -2.8198 C   0  0  0  0  0  0  0  0  0  0  0  0
    4.9723    0.7661   -1.3888 O   0  0  0  0  0  0  0  0  0  0  0  0
    6.1976    0.3697   -0.8280 C   0  0  0  0  0  0  0  0  0  0  0  0
    6.8791    1.2838   -0.0129 C   0  0  0  0  0  0  0  0  0  0  0  0
    8.1011    0.9390    0.5730 C   0  0  0  0  0  0  0  0  0  0  0  0
    8.6526   -0.3246    0.3483 C   0  0  0  0  0  0  0  0  0  0  0  0
    7.9843   -1.2445   -0.4656 C   0  0  0  0  0  0  0  0  0  0  0  0
    8.5207   -2.4705   -0.6839 F   0  0  0  0  0  0  0  0  0  0  0  0
    6.7612   -0.9028   -1.0530 C   0  0  0  0  0  0  0  0  0  0  0  0
   -0.5034   -1.0549   -2.7285 H   0  0  0  0  0  0  0  0  0  0  0  0
   -2.7361   -1.8665   -2.0589 H   0  0  0  0  0  0  0  0  0  0  0  0
   -1.2298    2.6844   -0.6454 H   0  0  0  0  0  0  0  0  0  0  0  0
   -3.7502    2.7970    0.4539 H   0  0  0  0  0  0  0  0  0  0  0  0
   -5.3935   -1.6430   -1.7864 H   0  0  0  0  0  0  0  0  0  0  0  0
   -4.0043   -3.2701   -0.8079 H   0  0  0  0  0  0  0  0  0  0  0  0
   -4.0285   -2.4672    0.8149 H   0  0  0  0  0  0  0  0  0  0  0  0
   -5.7731   -4.6167   -0.1812 H   0  0  0  0  0  0  0  0  0  0  0  0
   -5.7428   -3.8352    1.4521 H   0  0  0  0  0  0  0  0  0  0  0  0
   -7.4966   -3.2353   -0.9380 H   0  0  0  0  0  0  0  0  0  0  0  0
   -7.8533   -3.0367    0.8270 H   0  0  0  0  0  0  0  0  0  0  0  0
   -7.3847   -0.8503   -0.6886 H   0  0  0  0  0  0  0  0  0  0  0  0
   -6.6347   -1.0337    0.9681 H   0  0  0  0  0  0  0  0  0  0  0  0
    1.2632   -1.3487   -1.1944 H   0  0  0  0  0  0  0  0  0  0  0  0
    1.9667   -0.1162   -0.0604 H   0  0  0  0  0  0  0  0  0  0  0  0
    3.3263   -2.0496   -1.9344 H   0  0  0  0  0  0  0  0  0  0  0  0
    3.9432   -1.3178   -0.4020 H   0  0  0  0  0  0  0  0  0  0  0  0
    4.7313   -0.5246   -3.0168 H   0  0  0  0  0  0  0  0  0  0  0  0
    2.8692    0.5342   -3.8858 H   0  0  0  0  0  0  0  0  0  0  0  0
    3.2827    1.8857   -2.7499 H   0  0  0  0  0  0  0  0  0  0  0  0
    6.4582    2.2651    0.1673 H   0  0  0  0  0  0  0  0  0  0  0  0
    8.6206    1.6515    1.2008 H   0  0  0  0  0  0  0  0  0  0  0  0
    9.5987   -0.5900    0.8022 H   0  0  0  0  0  0  0  0  0  0  0  0
    6.2627   -1.6344   -1.6731 H   0  0  0  0  0  0  0  0  0  0  0  0
  1  2  2  0
  2  3  1  0
  3  4  2  0
  4  5  1  0
  5  6  2  0
  6  7  1  0
  7  8  2  0
  7  9  1  0
  9 10  1  0
 10 11  2  0
 10 12  1  0
 12 13  1  0
 13 14  1  0
 14 15  1  0
 15 16  1  0
 16 17  1  0
  2 18  1  0
 18 19  1  0
 19 20  1  0
 20 21  1  0
 21 22  1  0
 21 23  1  0
 23 24  1  0
 24 25  2  0
 25 26  1  0
 26 27  2  0
 27 28  1  0
 28 29  1  0
 28 30  2  0
  3  8  1  0
 12  6  1  0
 17 13  1  0
 22 18  1  0
 24 30  1  0
  4 31  1  0
  5 32  1  0
  8 33  1  0
  9 34  1  0
 13 35  1  0
 14 36  1  0
 14 37  1  0
 15 38  1  0
 15 39  1  0
 16 40  1  0
 16 41  1  0
 17 42  1  0
 17 43  1  0
 19 44  1  0
 19 45  1  0
 20 46  1  0
 20 47  1  0
 21 48  1  0
 22 49  1  0
 22 50  1  0
 25 51  1  0
 26 52  1  0
 27 53  1  0
 30 54  1  0
M  END
$$$$
