
     RDKit          3D

 49 52  0  0  0  0  0  0  0  0999 V2000
   -3.2827    2.1902   -0.8587 C   0  0  0  0  0  0  0  0  0  0  0  0
   -3.1778    2.6904    0.5123 N   0  0  0  0  0  0  0  0  0  0  0  0
   -3.0278    4.1245    0.7548 C   0  0  0  0  0  0  0  0  0  0  0  0
   -3.2612    1.7871    1.6268 C   0  0  0  0  0  0  0  0  0  0  0  0
   -4.3281    1.8877    2.5433 C   0  0  0  0  0  0  0  0  0  0  0  0
   -4.4286    0.9979    3.6288 C   0  0  0  0  0  0  0  0  0  0  0  0
   -3.4644   -0.0015    3.8180 C   0  0  0  0  0  0  0  0  0  0  0  0
   -2.4138   -0.0834    2.9090 C   0  0  0  0  0  0  0  0  0  0  0  0
   -1.1222   -1.1528    2.9200 S   0  0  0  0  0  0  0  0  0  0  0  0
   -0.3844   -0.5179    1.5356 C   0  0  0  0  0  0  0  0  0  0  0  0
   -1.1483    0.5520    1.0592 C   0  0  0  0  0  0  0  0  0  0  0  0
   -2.2962    0.7843    1.8317 C   0  0  0  0  0  0  0  0  0  0  0  0
    0.8826   -1.0148    0.9690 C   0  0  0  0  0  0  0  0  0  0  0  0
    1.5477   -1.8653    1.6204 O   0  0  0  0  0  0  0  0  0  0  0  0
    1.3549   -0.5597   -0.3143 N   0  0  0  0  0  0  0  0  0  0  0  0
    2.7082   -0.8535   -0.8377 C   0  0  0  0  0  0  0  0  0  0  0  0
    2.9271   -0.1049   -2.1491 C   0  0  0  0  0  0  0  0  0  0  0  0
    3.3489    1.2944   -1.7226 C   0  0  0  0  0  0  0  0  0  0  0  0
    3.8288    1.2297   -0.3378 N   0  0  0  0  0  0  0  0  0  0  0  0
    3.7411   -0.1706    0.0780 C   0  0  0  0  0  0  0  0  0  0  0  0
    2.9090   -2.3652   -1.0557 C   0  0  0  0  0  0  0  0  0  0  0  0
    1.7943   -3.2219   -1.2117 C   0  0  0  0  0  0  0  0  0  0  0  0
    1.9650   -4.5875   -1.4550 C   0  0  0  0  0  0  0  0  0  0  0  0
    3.2457   -5.1212   -1.5872 C   0  0  0  0  0  0  0  0  0  0  0  0
    4.3582   -4.2861   -1.4992 C   0  0  0  0  0  0  0  0  0  0  0  0
    4.1954   -2.9193   -1.2548 C   0  0  0  0  0  0  0  0  0  0  0  0
   -2.3641    2.4517   -1.4250 H   0  0  0  0  0  0  0  0  0  0  0  0
   -3.4098    1.0863   -0.8726 H   0  0  0  0  0  0  0  0  0  0  0  0
   -4.1618    2.6503   -1.3569 H   0  0  0  0  0  0  0  0  0  0  0  0
   -2.9443    4.6822   -0.2027 H   0  0  0  0  0  0  0  0  0  0  0  0
   -2.1088    4.3076    1.3503 H   0  0  0  0  0  0  0  0  0  0  0  0
   -3.9074    4.5109    1.3103 H   0  0  0  0  0  0  0  0  0  0  0  0
   -5.0897    2.6450    2.4089 H   0  0  0  0  0  0  0  0  0  0  0  0
   -5.2558    1.0847    4.3212 H   0  0  0  0  0  0  0  0  0  0  0  0
   -3.5331   -0.6867    4.6530 H   0  0  0  0  0  0  0  0  0  0  0  0
   -0.8748    1.1568    0.2068 H   0  0  0  0  0  0  0  0  0  0  0  0
    0.6984   -0.0035   -0.9058 H   0  0  0  0  0  0  0  0  0  0  0  0
    2.0193   -0.0868   -2.7913 H   0  0  0  0  0  0  0  0  0  0  0  0
    3.7564   -0.5628   -2.7341 H   0  0  0  0  0  0  0  0  0  0  0  0
    2.4816    1.9891   -1.8030 H   0  0  0  0  0  0  0  0  0  0  0  0
    4.1609    1.6719   -2.3803 H   0  0  0  0  0  0  0  0  0  0  0  0
    3.1763    1.7878    0.2629 H   0  0  0  0  0  0  0  0  0  0  0  0
    4.7536   -0.6044   -0.0122 H   0  0  0  0  0  0  0  0  0  0  0  0
    3.4698   -0.2414    1.1532 H   0  0  0  0  0  0  0  0  0  0  0  0
    0.7831   -2.8428   -1.1535 H   0  0  0  0  0  0  0  0  0  0  0  0
    1.1000   -5.2309   -1.5534 H   0  0  0  0  0  0  0  0  0  0  0  0
    3.3751   -6.1782   -1.7811 H   0  0  0  0  0  0  0  0  0  0  0  0
    5.3507   -4.6953   -1.6379 H   0  0  0  0  0  0  0  0  0  0  0  0
    5.0827   -2.3050   -1.2591 H   0  0  0  0  0  0  0  0  0  0  0  0
  1  2  1  0
  2  3  1  0
  2  4  1  0
  4  5  2  0
  5  6  1  0
  6  7  2  0
  7  8  1  0
  8  9  1  0
  9 10  1  0
 10 11  2  0
 11 12  1  0
 10 13  1  0
 13 14  2  0
 13 15  1  0
 15 16  1  0
 16 17  1  0
 17 18  1  0
 18 19  1  0
 19 20  1  0
 16 21  1  0
 21 22  2  0
 22 23  1  0
 23 24  2  0
 24 25  1  0
 25 26  2  0
  4 12  1  0
 12  8  2  0
 20 16  1  0
 21 26  1  0
  1 27  1  0
  1 28  1  0
  1 29  1  0
  3 30  1  0
  3 31  1  0
  3 32  1  0
  5 33  1  0
  6 34  1  0
  7 35  1  0
 11 36  1  0
 15 37  1  0
 17 38  1  0
 17 39  1  0
 18 40  1  0
 18 41  1  0
 19 42  1  0
 20 43  1  0
 20 44  1  0
 22 45  1  0
 23 46  1  0
 24 47  1  0
 25 48  1  0
 26 49  1  0
M  END
$$$$
