
     RDKit          3D

 47 49  0  0  0  0  0  0  0  0999 V2000
   -2.7724    1.4770    3.5925 C   0  0  0  0  0  0  0  0  0  0  0  0
   -3.0515    0.6010    2.4409 N   0  0  0  0  0  0  0  0  0  0  0  0
   -4.2544   -0.2015    2.7156 C   0  0  0  0  0  0  0  0  0  0  0  0
   -1.8937   -0.2738    2.1397 C   0  0  0  0  0  0  0  0  0  0  0  0
   -0.9558    0.4085    1.1197 C   0  0  0  0  0  0  0  0  0  0  0  0
    0.3790   -0.3115    0.9213 C   0  0  0  0  0  0  0  0  0  0  0  0
    0.5299   -1.7006    1.1251 C   0  0  0  0  0  0  0  0  0  0  0  0
    1.7773   -2.3119    0.9627 C   0  0  0  0  0  0  0  0  0  0  0  0
    2.8842   -1.5571    0.5742 C   0  0  0  0  0  0  0  0  0  0  0  0
    2.7523   -0.1838    0.3688 C   0  0  0  0  0  0  0  0  0  0  0  0
    1.5137    0.4373    0.5512 C   0  0  0  0  0  0  0  0  0  0  0  0
   -1.6986    0.6844   -0.1402 N   0  0  0  0  0  0  0  0  0  0  0  0
   -1.4004    2.0025   -0.7138 C   0  0  0  0  0  0  0  0  0  0  0  0
   -1.7144   -0.5858   -1.3558 S   0  0  0  0  0  0  0  0  0  0  0  0
   -2.7286   -0.2299   -2.4064 O   0  0  0  0  0  0  0  0  0  0  0  0
   -2.1714   -1.8592   -0.7081 O   0  0  0  0  0  0  0  0  0  0  0  0
   -0.1519   -0.7937   -2.1806 C   0  0  0  0  0  0  0  0  0  0  0  0
    0.4352    0.2646   -2.8794 C   0  0  0  0  0  0  0  0  0  0  0  0
    1.9072   -0.2276   -3.5327 S   0  0  0  0  0  0  0  0  0  0  0  0
    1.8037   -1.8006   -2.9741 C   0  0  0  0  0  0  0  0  0  0  0  0
    2.7239   -2.8262   -3.1738 C   0  0  0  0  0  0  0  0  0  0  0  0
    2.4310   -4.0919   -2.6534 C   0  0  0  0  0  0  0  0  0  0  0  0
    1.2287   -4.3096   -1.9606 C   0  0  0  0  0  0  0  0  0  0  0  0
    0.3128   -3.2616   -1.7711 C   0  0  0  0  0  0  0  0  0  0  0  0
    0.6156   -1.9825   -2.2712 C   0  0  0  0  0  0  0  0  0  0  0  0
   -3.6217    2.1753    3.7542 H   0  0  0  0  0  0  0  0  0  0  0  0
   -1.8742    2.1003    3.4037 H   0  0  0  0  0  0  0  0  0  0  0  0
   -2.6112    0.8850    4.5212 H   0  0  0  0  0  0  0  0  0  0  0  0
   -4.0850   -0.9009    3.5648 H   0  0  0  0  0  0  0  0  0  0  0  0
   -5.1154    0.4599    2.9542 H   0  0  0  0  0  0  0  0  0  0  0  0
   -4.5356   -0.7853    1.8128 H   0  0  0  0  0  0  0  0  0  0  0  0
   -2.2396   -1.2371    1.7101 H   0  0  0  0  0  0  0  0  0  0  0  0
   -1.3284   -0.5266    3.0665 H   0  0  0  0  0  0  0  0  0  0  0  0
   -0.6900    1.3776    1.5982 H   0  0  0  0  0  0  0  0  0  0  0  0
   -0.3059   -2.3245    1.4045 H   0  0  0  0  0  0  0  0  0  0  0  0
    1.8805   -3.3778    1.1196 H   0  0  0  0  0  0  0  0  0  0  0  0
    3.8442   -2.0365    0.4335 H   0  0  0  0  0  0  0  0  0  0  0  0
    3.6129    0.4030    0.0751 H   0  0  0  0  0  0  0  0  0  0  0  0
    1.4473    1.5080    0.4150 H   0  0  0  0  0  0  0  0  0  0  0  0
   -1.7175    2.7972   -0.0056 H   0  0  0  0  0  0  0  0  0  0  0  0
   -1.9690    2.1605   -1.6540 H   0  0  0  0  0  0  0  0  0  0  0  0
   -0.3182    2.1200   -0.9125 H   0  0  0  0  0  0  0  0  0  0  0  0
    0.0105    1.2480   -3.0137 H   0  0  0  0  0  0  0  0  0  0  0  0
    3.6406   -2.6525   -3.7223 H   0  0  0  0  0  0  0  0  0  0  0  0
    3.1288   -4.9072   -2.7931 H   0  0  0  0  0  0  0  0  0  0  0  0
    1.0068   -5.2938   -1.5687 H   0  0  0  0  0  0  0  0  0  0  0  0
   -0.5954   -3.4759   -1.2379 H   0  0  0  0  0  0  0  0  0  0  0  0
  1  2  1  0
  2  3  1  0
  2  4  1  0
  4  5  1  0
  5  6  1  0
  6  7  2  0
  7  8  1  0
  8  9  2  0
  9 10  1  0
 10 11  2  0
  5 12  1  0
 12 13  1  0
 12 14  1  0
 14 15  2  0
 14 16  2  0
 14 17  1  0
 17 18  2  0
 18 19  1  0
 19 20  1  0
 20 21  2  0
 21 22  1  0
 22 23  2  0
 23 24  1  0
 24 25  2  0
  6 11  1  0
 25 17  1  0
 20 25  1  0
  1 26  1  0
  1 27  1  0
  1 28  1  0
  3 29  1  0
  3 30  1  0
  3 31  1  0
  4 32  1  0
  4 33  1  0
  5 34  1  0
  7 35  1  0
  8 36  1  0
  9 37  1  0
 10 38  1  0
 11 39  1  0
 13 40  1  0
 13 41  1  0
 13 42  1  0
 18 43  1  0
 21 44  1  0
 22 45  1  0
 23 46  1  0
 24 47  1  0
M  END
$$$$
