
     RDKit          3D

  0  0  0  0  0  0  0  0  0  0999 V3000
M  V30 BEGIN CTAB
M  V30 COUNTS 39 41 0 0 0
M  V30 BEGIN ATOM
M  V30 1 O 2.007423 1.064974 0.737955 0
M  V30 2 C 1.634828 0.477368 -0.314337 0
M  V30 3 N 0.930917 -0.772648 -0.222555 0
M  V30 4 C 0.315829 -1.242468 1.024198 0 CFG=2
M  V30 5 C 0.446535 -2.769826 1.121710 0
M  V30 6 C -0.093467 -3.277795 2.459917 0
M  V30 7 C -1.461464 -2.729597 2.739795 0
M  V30 8 O -2.227302 -3.347929 3.525935 0
M  V30 9 N -1.875462 -1.471726 2.189733 0
M  V30 10 C -1.176858 -0.836314 1.066158 0 CFG=1
M  V30 11 C -1.321503 0.669017 1.153691 0
M  V30 12 C -1.761332 1.405335 0.039377 0
M  V30 13 C -1.850744 2.798954 0.103932 0
M  V30 14 C -1.503655 3.469834 1.279122 0
M  V30 15 C -1.066192 2.748237 2.392484 0
M  V30 16 C -0.973081 1.354689 2.332261 0
M  V30 17 C 1.962055 1.076981 -1.628567 0
M  V30 18 C 3.138753 1.829746 -1.776702 0
M  V30 19 C 3.457800 2.402596 -3.008286 0
M  V30 20 C 2.591273 2.230145 -4.086637 0
M  V30 21 N 1.444975 1.518250 -3.930076 0
M  V30 22 C 1.109623 0.944362 -2.743292 0
M  V30 23 F -0.074824 0.291938 -2.647939 0
M  V30 24 H 0.785636 -1.338226 -1.088888 0
M  V30 25 H 0.849286 -0.805513 1.898183 0
M  V30 26 H 1.516385 -3.058928 1.031958 0
M  V30 27 H -0.110614 -3.254368 0.289010 0
M  V30 28 H -0.129149 -4.388524 2.441315 0
M  V30 29 H 0.589475 -2.965332 3.279007 0
M  V30 30 H -2.824994 -1.116732 2.446218 0
M  V30 31 H -1.659169 -1.200394 0.130997 0
M  V30 32 H -2.030016 0.902922 -0.880956 0
M  V30 33 H -2.187193 3.359239 -0.758798 0
M  V30 34 H -1.572594 4.548897 1.326640 0
M  V30 35 H -0.795113 3.269196 3.301609 0
M  V30 36 H -0.623425 0.810105 3.200509 0
M  V30 37 H 3.817707 1.962959 -0.943332 0
M  V30 38 H 4.368966 2.974867 -3.125626 0
M  V30 39 H 2.825178 2.669544 -5.047099 0
M  V30 END ATOM
M  V30 BEGIN BOND
M  V30 1 2 1 2
M  V30 2 1 2 3
M  V30 3 1 3 4
M  V30 4 1 4 5
M  V30 5 1 5 6
M  V30 6 1 6 7
M  V30 7 2 7 8
M  V30 8 1 7 9
M  V30 9 1 9 10
M  V30 10 1 10 11
M  V30 11 2 11 12
M  V30 12 1 12 13
M  V30 13 2 13 14
M  V30 14 1 14 15
M  V30 15 2 15 16
M  V30 16 1 2 17
M  V30 17 2 17 18
M  V30 18 1 18 19
M  V30 19 2 19 20
M  V30 20 1 20 21
M  V30 21 2 21 22
M  V30 22 1 22 23
M  V30 23 1 10 4
M  V30 24 1 11 16
M  V30 25 1 17 22
M  V30 26 1 3 24
M  V30 27 1 4 25 CFG=1
M  V30 28 1 5 26
M  V30 29 1 5 27
M  V30 30 1 6 28
M  V30 31 1 6 29
M  V30 32 1 9 30
M  V30 33 1 10 31 CFG=3
M  V30 34 1 12 32
M  V30 35 1 13 33
M  V30 36 1 14 34
M  V30 37 1 15 35
M  V30 38 1 16 36
M  V30 39 1 18 37
M  V30 40 1 19 38
M  V30 41 1 20 39
M  V30 END BOND
M  V30 BEGIN COLLECTION
M  V30 MDLV30/STERAC1 ATOMS=(2 4 10)
M  V30 END COLLECTION
M  V30 END CTAB
M  END
>  <_CXSMILES_Data>  (1) 
|&1:3,9,r|

$$$$
