
     RDKit          3D

 44 47  0  0  0  0  0  0  0  0999 V2000
   -3.3915    3.2432    0.1980 O   0  0  0  0  0  0  0  0  0  0  0  0
   -2.9733    2.0596    0.0799 C   0  0  0  0  0  0  0  0  0  0  0  0
   -3.6537    0.9693    0.8602 C   0  0  0  0  0  0  0  0  0  0  0  0
   -3.4742    1.2420    2.6572 S   0  0  0  0  0  0  0  0  0  0  0  0
   -1.7036    0.9383    2.6866 C   0  0  0  0  0  0  0  0  0  0  0  0
   -0.8102    2.0164    2.6857 C   0  0  0  0  0  0  0  0  0  0  0  0
    0.5680    1.7844    2.7069 C   0  0  0  0  0  0  0  0  0  0  0  0
    1.0572    0.4752    2.7256 C   0  0  0  0  0  0  0  0  0  0  0  0
    0.1678   -0.6048    2.7280 C   0  0  0  0  0  0  0  0  0  0  0  0
    0.8359   -2.3933    2.7316 Br  0  0  0  0  0  0  0  0  0  0  0  0
   -1.2125   -0.3732    2.7193 C   0  0  0  0  0  0  0  0  0  0  0  0
   -1.8221    1.7916   -0.7421 N   0  0  0  0  0  0  0  0  0  0  0  0
   -1.7204    0.5766   -1.5703 C   0  0  0  0  0  0  0  0  0  0  0  0
   -0.4894   -0.2449   -1.1516 C   0  0  0  0  0  0  0  0  0  0  0  0
    0.6986    0.6668   -0.9920 C   0  0  0  0  0  0  0  0  0  0  0  0
    0.5858    2.0145   -0.7573 C   0  0  0  0  0  0  0  0  0  0  0  0
   -0.7134    2.7582   -0.7950 C   0  0  0  0  0  0  0  0  0  0  0  0
    1.7851    2.5379   -0.4389 N   0  0  0  0  0  0  0  0  0  0  0  0
    2.6143    1.4687   -0.4640 C   0  0  0  0  0  0  0  0  0  0  0  0
    1.9833    0.3169   -0.7890 N   0  0  0  0  0  0  0  0  0  0  0  0
    2.5697   -0.9944   -0.8183 C   0  0  0  0  0  0  0  0  0  0  0  0
    3.4022   -1.4182    0.2308 C   0  0  0  0  0  0  0  0  0  0  0  0
    3.9739   -2.6938    0.2077 C   0  0  0  0  0  0  0  0  0  0  0  0
    3.7330   -3.5495   -0.8707 C   0  0  0  0  0  0  0  0  0  0  0  0
    4.2897   -4.7856   -0.8932 F   0  0  0  0  0  0  0  0  0  0  0  0
    2.9280   -3.1257   -1.9317 C   0  0  0  0  0  0  0  0  0  0  0  0
    2.3532   -1.8512   -1.9102 C   0  0  0  0  0  0  0  0  0  0  0  0
   -3.2484   -0.0331    0.6183 H   0  0  0  0  0  0  0  0  0  0  0  0
   -4.7347    0.9684    0.6090 H   0  0  0  0  0  0  0  0  0  0  0  0
   -1.1823    3.0327    2.6650 H   0  0  0  0  0  0  0  0  0  0  0  0
    1.2570    2.6189    2.7011 H   0  0  0  0  0  0  0  0  0  0  0  0
    2.1248    0.3024    2.7380 H   0  0  0  0  0  0  0  0  0  0  0  0
   -1.9001   -1.2093    2.7205 H   0  0  0  0  0  0  0  0  0  0  0  0
   -1.6086    0.8785   -2.6347 H   0  0  0  0  0  0  0  0  0  0  0  0
   -2.6369   -0.0461   -1.5135 H   0  0  0  0  0  0  0  0  0  0  0  0
   -0.2976   -1.0216   -1.9169 H   0  0  0  0  0  0  0  0  0  0  0  0
   -0.6917   -0.7441   -0.1811 H   0  0  0  0  0  0  0  0  0  0  0  0
   -0.7549    3.4570    0.0680 H   0  0  0  0  0  0  0  0  0  0  0  0
   -0.7759    3.3433   -1.7364 H   0  0  0  0  0  0  0  0  0  0  0  0
    3.6697    1.5327   -0.2322 H   0  0  0  0  0  0  0  0  0  0  0  0
    3.5968   -0.7660    1.0718 H   0  0  0  0  0  0  0  0  0  0  0  0
    4.6038   -3.0174    1.0261 H   0  0  0  0  0  0  0  0  0  0  0  0
    2.7556   -3.7809   -2.7759 H   0  0  0  0  0  0  0  0  0  0  0  0
    1.7658   -1.5235   -2.7572 H   0  0  0  0  0  0  0  0  0  0  0  0
  1  2  2  0
  2  3  1  0
  3  4  1  0
  4  5  1  0
  5  6  2  0
  6  7  1  0
  7  8  2  0
  8  9  1  0
  9 10  1  0
  9 11  2  0
  2 12  1  0
 12 13  1  0
 13 14  1  0
 14 15  1  0
 15 16  2  0
 16 17  1  0
 16 18  1  0
 18 19  2  0
 19 20  1  0
 20 21  1  0
 21 22  2  0
 22 23  1  0
 23 24  2  0
 24 25  1  0
 24 26  1  0
 26 27  2  0
  5 11  1  0
 17 12  1  0
 20 15  1  0
 21 27  1  0
  3 28  1  0
  3 29  1  0
  6 30  1  0
  7 31  1  0
  8 32  1  0
 11 33  1  0
 13 34  1  0
 13 35  1  0
 14 36  1  0
 14 37  1  0
 17 38  1  0
 17 39  1  0
 19 40  1  0
 22 41  1  0
 23 42  1  0
 26 43  1  0
 27 44  1  0
M  END
$$$$
