
     RDKit          3D

 52 55  0  0  0  0  0  0  0  0999 V2000
   -1.1367   -3.3904    3.3553 C   0  0  0  0  0  0  0  0  0  0  0  0
    0.3114   -3.1496    3.7901 C   0  0  0  0  0  0  0  0  0  0  0  0
    0.6860   -4.0623    4.9633 C   0  0  0  0  0  0  0  0  0  0  0  0
    0.5102   -1.6951    4.1394 C   0  0  0  0  0  0  0  0  0  0  0  0
    0.3874   -1.1814    5.3866 N   0  0  0  0  0  0  0  0  0  0  0  0
    0.5434    0.1367    5.2964 N   0  0  0  0  0  0  0  0  0  0  0  0
    0.7432    0.4013    3.9928 C   0  0  0  0  0  0  0  0  0  0  0  0
    0.9321    1.6522    3.4141 C   0  0  0  0  0  0  0  0  0  0  0  0
    1.0856    1.7042    2.0181 C   0  0  0  0  0  0  0  0  0  0  0  0
    1.0330    0.5188    1.2436 C   0  0  0  0  0  0  0  0  0  0  0  0
    0.8646   -0.7148    1.8987 C   0  0  0  0  0  0  0  0  0  0  0  0
    0.7227   -0.7103    3.2483 N   0  0  0  0  0  0  0  0  0  0  0  0
    1.1778    0.5440   -0.1843 N   0  0  0  0  0  0  0  0  0  0  0  0
    0.4812    1.4771   -1.0319 C   0  0  0  0  0  0  0  0  0  0  0  0
   -0.2137    2.3916   -0.5091 O   0  0  0  0  0  0  0  0  0  0  0  0
    0.5151    1.3485   -2.4736 N   0  0  0  0  0  0  0  0  0  0  0  0
   -0.5045    2.0603   -3.2686 C   0  0  0  0  0  0  0  0  0  0  0  0
   -0.8975    1.3272   -4.5620 C   0  0  0  0  0  0  0  0  0  0  0  0
   -1.6867    0.0116   -4.3673 C   0  0  0  0  0  0  0  0  0  0  0  0
   -1.3418   -0.8469   -3.1558 C   0  0  0  0  0  0  0  0  0  0  0  0
   -2.3992   -1.2816   -2.3318 C   0  0  0  0  0  0  0  0  0  0  0  0
   -2.1685   -2.1533   -1.2669 C   0  0  0  0  0  0  0  0  0  0  0  0
   -0.8833   -2.6250   -1.0158 C   0  0  0  0  0  0  0  0  0  0  0  0
    0.1797   -2.2142   -1.8186 C   0  0  0  0  0  0  0  0  0  0  0  0
   -0.0271   -1.3192   -2.8846 C   0  0  0  0  0  0  0  0  0  0  0  0
    1.1789   -0.7898   -3.6264 C   0  0  0  0  0  0  0  0  0  0  0  0
    1.6102    0.6170   -3.1430 C   0  0  0  0  0  0  0  0  0  0  0  0
   -1.3840   -2.7568    2.4765 H   0  0  0  0  0  0  0  0  0  0  0  0
   -1.2773   -4.4533    3.0643 H   0  0  0  0  0  0  0  0  0  0  0  0
   -1.8394   -3.1471    4.1813 H   0  0  0  0  0  0  0  0  0  0  0  0
    0.9806   -3.4068    2.9407 H   0  0  0  0  0  0  0  0  0  0  0  0
    0.0153   -3.8863    5.8317 H   0  0  0  0  0  0  0  0  0  0  0  0
    0.6016   -5.1275    4.6592 H   0  0  0  0  0  0  0  0  0  0  0  0
    1.7358   -3.8728    5.2741 H   0  0  0  0  0  0  0  0  0  0  0  0
    0.9585    2.5520    4.0149 H   0  0  0  0  0  0  0  0  0  0  0  0
    1.2586    2.6620    1.5459 H   0  0  0  0  0  0  0  0  0  0  0  0
    0.8283   -1.6394    1.3375 H   0  0  0  0  0  0  0  0  0  0  0  0
    1.6376   -0.2854   -0.6154 H   0  0  0  0  0  0  0  0  0  0  0  0
   -0.1091    3.0649   -3.5311 H   0  0  0  0  0  0  0  0  0  0  0  0
   -1.4317    2.2094   -2.6727 H   0  0  0  0  0  0  0  0  0  0  0  0
   -1.5416    2.0171   -5.1505 H   0  0  0  0  0  0  0  0  0  0  0  0
   -0.0135    1.1677   -5.2099 H   0  0  0  0  0  0  0  0  0  0  0  0
   -1.5624   -0.6117   -5.2787 H   0  0  0  0  0  0  0  0  0  0  0  0
   -2.7653    0.2825   -4.3347 H   0  0  0  0  0  0  0  0  0  0  0  0
   -3.4142   -0.9528   -2.5172 H   0  0  0  0  0  0  0  0  0  0  0  0
   -2.9920   -2.4730   -0.6414 H   0  0  0  0  0  0  0  0  0  0  0  0
   -0.7078   -3.3034   -0.1907 H   0  0  0  0  0  0  0  0  0  0  0  0
    1.1748   -2.5750   -1.5890 H   0  0  0  0  0  0  0  0  0  0  0  0
    2.0396   -1.4841   -3.5086 H   0  0  0  0  0  0  0  0  0  0  0  0
    0.9699   -0.7845   -4.7155 H   0  0  0  0  0  0  0  0  0  0  0  0
    2.4936    0.5352   -2.4757 H   0  0  0  0  0  0  0  0  0  0  0  0
    1.9763    1.2075   -4.0102 H   0  0  0  0  0  0  0  0  0  0  0  0
  1  2  1  0
  2  3  1  0
  2  4  1  0
  4  5  2  0
  5  6  1  0
  6  7  2  0
  7  8  1  0
  8  9  2  0
  9 10  1  0
 10 11  2  0
 11 12  1  0
 10 13  1  0
 13 14  1  0
 14 15  2  0
 14 16  1  0
 16 17  1  0
 17 18  1  0
 18 19  1  0
 19 20  1  0
 20 21  2  0
 21 22  1  0
 22 23  2  0
 23 24  1  0
 24 25  2  0
 25 26  1  0
 26 27  1  0
 12  4  1  0
 12  7  1  0
 27 16  1  0
 20 25  1  0
  1 28  1  0
  1 29  1  0
  1 30  1  0
  2 31  1  0
  3 32  1  0
  3 33  1  0
  3 34  1  0
  8 35  1  0
  9 36  1  0
 11 37  1  0
 13 38  1  0
 17 39  1  0
 17 40  1  0
 18 41  1  0
 18 42  1  0
 19 43  1  0
 19 44  1  0
 21 45  1  0
 22 46  1  0
 23 47  1  0
 24 48  1  0
 26 49  1  0
 26 50  1  0
 27 51  1  0
 27 52  1  0
M  END
$$$$
