
     RDKit          3D

 50 53  0  0  0  0  0  0  0  0999 V2000
   -3.2051    7.2015    0.8593 C   0  0  0  0  0  0  0  0  0  0  0  0
   -2.7238    6.9455   -0.5384 C   0  0  0  0  0  0  0  0  0  0  0  0
   -2.6999    7.9781   -1.4887 C   0  0  0  0  0  0  0  0  0  0  0  0
   -2.2836    7.7188   -2.7973 C   0  0  0  0  0  0  0  0  0  0  0  0
   -1.8899    6.4298   -3.1662 C   0  0  0  0  0  0  0  0  0  0  0  0
   -1.8999    5.3909   -2.2285 C   0  0  0  0  0  0  0  0  0  0  0  0
   -2.3385    5.6502   -0.9164 C   0  0  0  0  0  0  0  0  0  0  0  0
   -1.5180    4.1064   -2.6424 O   0  0  0  0  0  0  0  0  0  0  0  0
   -0.9181    3.1355   -1.8270 C   0  0  0  0  0  0  0  0  0  0  0  0
   -0.0647    3.4729   -0.7647 C   0  0  0  0  0  0  0  0  0  0  0  0
    0.5205    2.4684    0.0081 C   0  0  0  0  0  0  0  0  0  0  0  0
    0.2598    1.1218   -0.2937 C   0  0  0  0  0  0  0  0  0  0  0  0
   -0.5573    0.8219   -1.3413 N   0  0  0  0  0  0  0  0  0  0  0  0
   -1.1370    1.7842   -2.1070 C   0  0  0  0  0  0  0  0  0  0  0  0
    0.8567    0.0304    0.5066 C   0  0  0  0  0  0  0  0  0  0  0  0
    1.6036    0.3092    1.4841 O   0  0  0  0  0  0  0  0  0  0  0  0
    0.6197   -1.3432    0.1520 N   0  0  0  0  0  0  0  0  0  0  0  0
    0.9269   -2.4579    1.0080 C   0  0  0  0  0  0  0  0  0  0  0  0
    0.7958   -2.3680    2.4048 C   0  0  0  0  0  0  0  0  0  0  0  0
    1.0762   -3.4731    3.2117 C   0  0  0  0  0  0  0  0  0  0  0  0
    1.4791   -4.6804    2.6361 C   0  0  0  0  0  0  0  0  0  0  0  0
    1.6043   -4.7942    1.2425 C   0  0  0  0  0  0  0  0  0  0  0  0
    1.3096   -3.6800    0.4347 C   0  0  0  0  0  0  0  0  0  0  0  0
    2.0096   -6.1144    0.6229 C   0  0  0  0  0  0  0  0  0  0  0  0
    0.8379   -6.7778   -0.1469 C   0  0  0  0  0  0  0  0  0  0  0  0
    1.2424   -6.8398   -1.6292 C   0  0  0  0  0  0  0  0  0  0  0  0
    2.6270   -6.3296   -1.6265 C   0  0  0  0  0  0  0  0  0  0  0  0
    3.3482   -6.2483   -2.6551 O   0  0  0  0  0  0  0  0  0  0  0  0
    3.0653   -5.9141   -0.3532 N   0  0  0  0  0  0  0  0  0  0  0  0
   -3.2797    8.2904    1.0691 H   0  0  0  0  0  0  0  0  0  0  0  0
   -2.4976    6.7548    1.5904 H   0  0  0  0  0  0  0  0  0  0  0  0
   -4.2068    6.7421    0.9961 H   0  0  0  0  0  0  0  0  0  0  0  0
   -3.0084    8.9805   -1.2203 H   0  0  0  0  0  0  0  0  0  0  0  0
   -2.2704    8.5176   -3.5280 H   0  0  0  0  0  0  0  0  0  0  0  0
   -1.5717    6.2379   -4.1829 H   0  0  0  0  0  0  0  0  0  0  0  0
   -2.3992    4.8448   -0.1952 H   0  0  0  0  0  0  0  0  0  0  0  0
    0.1625    4.5078   -0.5455 H   0  0  0  0  0  0  0  0  0  0  0  0
    1.1734    2.7427    0.8273 H   0  0  0  0  0  0  0  0  0  0  0  0
   -1.7773    1.4975   -2.9307 H   0  0  0  0  0  0  0  0  0  0  0  0
    0.2895   -1.5536   -0.8170 H   0  0  0  0  0  0  0  0  0  0  0  0
    0.4517   -1.4552    2.8724 H   0  0  0  0  0  0  0  0  0  0  0  0
    0.9713   -3.3969    4.2864 H   0  0  0  0  0  0  0  0  0  0  0  0
    1.6853   -5.5278    3.2785 H   0  0  0  0  0  0  0  0  0  0  0  0
    1.3851   -3.7602   -0.6428 H   0  0  0  0  0  0  0  0  0  0  0  0
    2.3820   -6.8140    1.4038 H   0  0  0  0  0  0  0  0  0  0  0  0
    0.6745   -7.8089    0.2376 H   0  0  0  0  0  0  0  0  0  0  0  0
   -0.1159   -6.2162   -0.0310 H   0  0  0  0  0  0  0  0  0  0  0  0
    0.5976   -6.1766   -2.2450 H   0  0  0  0  0  0  0  0  0  0  0  0
    1.2118   -7.8818   -2.0133 H   0  0  0  0  0  0  0  0  0  0  0  0
    4.0060   -5.5100   -0.1471 H   0  0  0  0  0  0  0  0  0  0  0  0
  1  2  1  0
  2  3  2  0
  3  4  1  0
  4  5  2  0
  5  6  1  0
  6  7  2  0
  6  8  1  0
  8  9  1  0
  9 10  2  0
 10 11  1  0
 11 12  2  0
 12 13  1  0
 13 14  2  0
 12 15  1  0
 15 16  2  0
 15 17  1  0
 17 18  1  0
 18 19  2  0
 19 20  1  0
 20 21  2  0
 21 22  1  0
 22 23  2  0
 22 24  1  0
 24 25  1  0
 25 26  1  0
 26 27  1  0
 27 28  2  0
 27 29  1  0
  2  7  1  0
  9 14  1  0
 18 23  1  0
 29 24  1  0
  1 30  1  0
  1 31  1  0
  1 32  1  0
  3 33  1  0
  4 34  1  0
  5 35  1  0
  7 36  1  0
 10 37  1  0
 11 38  1  0
 14 39  1  0
 17 40  1  0
 19 41  1  0
 20 42  1  0
 21 43  1  0
 23 44  1  0
 24 45  1  0
 25 46  1  0
 25 47  1  0
 26 48  1  0
 26 49  1  0
 29 50  1  0
M  END
$$$$
