
     RDKit          3D

 53 57  0  0  0  0  0  0  0  0999 V2000
   -1.6079   -1.3313    4.4481 O   0  0  0  0  0  0  0  0  0  0  0  0
   -1.0187   -1.1118    3.3561 C   0  0  0  0  0  0  0  0  0  0  0  0
   -1.0610    0.2421    2.7660 C   0  0  0  0  0  0  0  0  0  0  0  0
   -1.0869    1.3794    3.6163 C   0  0  0  0  0  0  0  0  0  0  0  0
   -1.1278    2.6788    3.0798 C   0  0  0  0  0  0  0  0  0  0  0  0
   -1.1525    2.8096    1.6950 C   0  0  0  0  0  0  0  0  0  0  0  0
   -1.1995    3.9347    0.9026 C   0  0  0  0  0  0  0  0  0  0  0  0
   -1.2241    3.4563   -0.4104 C   0  0  0  0  0  0  0  0  0  0  0  0
   -1.1929    2.0992   -0.4212 N   0  0  0  0  0  0  0  0  0  0  0  0
   -1.1466    1.7217    0.8668 C   0  0  0  0  0  0  0  0  0  0  0  0
   -1.1052    0.4207    1.3645 C   0  0  0  0  0  0  0  0  0  0  0  0
   -1.2779    4.2971   -1.6328 C   0  0  0  0  0  0  0  0  0  0  0  0
   -1.7424    3.7628   -2.8499 C   0  0  0  0  0  0  0  0  0  0  0  0
   -1.7922    4.5568   -3.9999 C   0  0  0  0  0  0  0  0  0  0  0  0
   -1.3802    5.8898   -3.9503 C   0  0  0  0  0  0  0  0  0  0  0  0
   -0.9185    6.4326   -2.7498 C   0  0  0  0  0  0  0  0  0  0  0  0
   -0.8673    5.6439   -1.5963 C   0  0  0  0  0  0  0  0  0  0  0  0
   -0.2844   -2.1734    2.7404 N   0  0  0  0  0  0  0  0  0  0  0  0
    0.7014   -2.3633    1.6578 C   0  0  0  0  0  0  0  0  0  0  0  0
    1.0011   -3.8017    1.9674 C   0  0  0  0  0  0  0  0  0  0  0  0
   -0.0056   -3.5875    3.0541 C   0  0  0  0  0  0  0  0  0  0  0  0
    0.5246   -4.7648    0.9566 N   0  0  0  0  0  0  0  0  0  0  0  0
    1.5843   -5.1538    0.0090 C   0  0  0  0  0  0  0  0  0  0  0  0
    1.1552   -6.4268   -0.7439 C   0  0  0  0  0  0  0  0  0  0  0  0
    1.9801   -6.6393   -2.0277 C   0  0  0  0  0  0  0  0  0  0  0  0
    3.1851   -5.9008   -1.9905 O   0  0  0  0  0  0  0  0  0  0  0  0
    2.9023   -4.5142   -2.0780 C   0  0  0  0  0  0  0  0  0  0  0  0
    1.9080   -4.0307   -0.9965 C   0  0  0  0  0  0  0  0  0  0  0  0
   -1.0621    1.2589    4.6922 H   0  0  0  0  0  0  0  0  0  0  0  0
   -1.1400    3.5480    3.7249 H   0  0  0  0  0  0  0  0  0  0  0  0
   -1.2314    4.9624    1.2391 H   0  0  0  0  0  0  0  0  0  0  0  0
   -1.1818    1.4648   -1.2503 H   0  0  0  0  0  0  0  0  0  0  0  0
   -1.1447   -0.4173    0.6844 H   0  0  0  0  0  0  0  0  0  0  0  0
   -2.0861    2.7394   -2.9148 H   0  0  0  0  0  0  0  0  0  0  0  0
   -2.1546    4.1385   -4.9301 H   0  0  0  0  0  0  0  0  0  0  0  0
   -1.4194    6.5023   -4.8418 H   0  0  0  0  0  0  0  0  0  0  0  0
   -0.5967    7.4654   -2.7130 H   0  0  0  0  0  0  0  0  0  0  0  0
   -0.4910    6.0866   -0.6837 H   0  0  0  0  0  0  0  0  0  0  0  0
    0.2423   -2.2071    0.6588 H   0  0  0  0  0  0  0  0  0  0  0  0
    1.5873   -1.7088    1.8137 H   0  0  0  0  0  0  0  0  0  0  0  0
    2.0262   -3.9937    2.3573 H   0  0  0  0  0  0  0  0  0  0  0  0
   -0.9260   -4.2044    2.9456 H   0  0  0  0  0  0  0  0  0  0  0  0
    0.4428   -3.6846    4.0680 H   0  0  0  0  0  0  0  0  0  0  0  0
   -0.3123   -4.4027    0.4397 H   0  0  0  0  0  0  0  0  0  0  0  0
    2.5156   -5.4010    0.5695 H   0  0  0  0  0  0  0  0  0  0  0  0
    0.0791   -6.3664   -1.0195 H   0  0  0  0  0  0  0  0  0  0  0  0
    1.2791   -7.3018   -0.0686 H   0  0  0  0  0  0  0  0  0  0  0  0
    2.2292   -7.7172   -2.1250 H   0  0  0  0  0  0  0  0  0  0  0  0
    1.3777   -6.3716   -2.9268 H   0  0  0  0  0  0  0  0  0  0  0  0
    3.8596   -3.9645   -1.9547 H   0  0  0  0  0  0  0  0  0  0  0  0
    2.5225   -4.2623   -3.0938 H   0  0  0  0  0  0  0  0  0  0  0  0
    2.3456   -3.1599   -0.4635 H   0  0  0  0  0  0  0  0  0  0  0  0
    0.9704   -3.6932   -1.4907 H   0  0  0  0  0  0  0  0  0  0  0  0
  1  2  2  0
  2  3  1  0
  3  4  2  0
  4  5  1  0
  5  6  2  0
  6  7  1  0
  7  8  2  0
  8  9  1  0
  9 10  1  0
 10 11  2  0
  8 12  1  0
 12 13  2  0
 13 14  1  0
 14 15  2  0
 15 16  1  0
 16 17  2  0
  2 18  1  0
 18 19  1  0
 19 20  1  0
 20 21  1  0
 20 22  1  0
 22 23  1  0
 23 24  1  0
 24 25  1  0
 25 26  1  0
 26 27  1  0
 27 28  1  0
  3 11  1  0
  6 10  1  0
 12 17  1  0
 21 18  1  0
 28 23  1  0
  4 29  1  0
  5 30  1  0
  7 31  1  0
  9 32  1  0
 11 33  1  0
 13 34  1  0
 14 35  1  0
 15 36  1  0
 16 37  1  0
 17 38  1  0
 19 39  1  0
 19 40  1  0
 20 41  1  0
 21 42  1  0
 21 43  1  0
 22 44  1  0
 23 45  1  0
 24 46  1  0
 24 47  1  0
 25 48  1  0
 25 49  1  0
 27 50  1  0
 27 51  1  0
 28 52  1  0
 28 53  1  0
M  END
$$$$
