
     RDKit          3D

 42 46  0  0  0  0  0  0  0  0999 V2000
    6.3790   -3.8484   -2.7913 C   0  0  0  0  0  0  0  0  0  0  0  0
    6.3204   -2.8904   -3.8085 C   0  0  0  0  0  0  0  0  0  0  0  0
    5.2272   -2.0218   -3.8946 C   0  0  0  0  0  0  0  0  0  0  0  0
    4.1869   -2.1110   -2.9624 C   0  0  0  0  0  0  0  0  0  0  0  0
    3.1200   -1.2715   -3.0455 N   0  0  0  0  0  0  0  0  0  0  0  0
    2.0865   -1.3290   -2.1608 C   0  0  0  0  0  0  0  0  0  0  0  0
    2.1077   -2.2771   -1.1271 C   0  0  0  0  0  0  0  0  0  0  0  0
    3.1898   -3.1527   -1.0159 C   0  0  0  0  0  0  0  0  0  0  0  0
    4.2434   -3.0788   -1.9350 C   0  0  0  0  0  0  0  0  0  0  0  0
    5.3443   -3.9450   -1.8546 C   0  0  0  0  0  0  0  0  0  0  0  0
    0.9586   -0.3970   -2.3019 C   0  0  0  0  0  0  0  0  0  0  0  0
    0.8658    0.5373   -3.2700 N   0  0  0  0  0  0  0  0  0  0  0  0
   -0.2777    1.1733   -3.0687 N   0  0  0  0  0  0  0  0  0  0  0  0
   -0.8330    0.5991   -1.9865 C   0  0  0  0  0  0  0  0  0  0  0  0
   -2.0883    1.0006   -1.4320 N   0  0  0  0  0  0  0  0  0  0  0  0
   -2.6086    0.4123   -0.1957 C   0  0  0  0  0  0  0  0  0  0  0  0
   -2.1016    1.2366    1.0027 C   0  0  0  0  0  0  0  0  0  0  0  0
   -2.8035    0.7986    2.2877 C   0  0  0  0  0  0  0  0  0  0  0  0
   -4.2165    0.9213    2.1404 O   0  0  0  0  0  0  0  0  0  0  0  0
   -4.8674    0.5894    0.9473 C   0  0  0  0  0  0  0  0  0  0  0  0
   -6.2638    0.5120    0.9248 C   0  0  0  0  0  0  0  0  0  0  0  0
   -6.9285    0.1543   -0.2512 C   0  0  0  0  0  0  0  0  0  0  0  0
   -6.1994   -0.1324   -1.4077 C   0  0  0  0  0  0  0  0  0  0  0  0
   -4.8039   -0.0468   -1.3967 C   0  0  0  0  0  0  0  0  0  0  0  0
   -4.1256    0.3459   -0.2286 C   0  0  0  0  0  0  0  0  0  0  0  0
   -0.0849   -0.3644   -1.5073 O   0  0  0  0  0  0  0  0  0  0  0  0
    7.2273   -4.5182   -2.7296 H   0  0  0  0  0  0  0  0  0  0  0  0
    7.1235   -2.8211   -4.5311 H   0  0  0  0  0  0  0  0  0  0  0  0
    5.1896   -1.2845   -4.6863 H   0  0  0  0  0  0  0  0  0  0  0  0
    1.2951   -2.3401   -0.4136 H   0  0  0  0  0  0  0  0  0  0  0  0
    3.2015   -3.8856   -0.2175 H   0  0  0  0  0  0  0  0  0  0  0  0
    5.4032   -4.6929   -1.0732 H   0  0  0  0  0  0  0  0  0  0  0  0
   -2.5665    1.8355   -1.8412 H   0  0  0  0  0  0  0  0  0  0  0  0
   -2.2378   -0.6322   -0.0917 H   0  0  0  0  0  0  0  0  0  0  0  0
   -1.0031    1.1014    1.1144 H   0  0  0  0  0  0  0  0  0  0  0  0
   -2.3051    2.3177    0.8317 H   0  0  0  0  0  0  0  0  0  0  0  0
   -2.5491   -0.2601    2.5111 H   0  0  0  0  0  0  0  0  0  0  0  0
   -2.4666    1.4287    3.1369 H   0  0  0  0  0  0  0  0  0  0  0  0
   -6.8324    0.7170    1.8227 H   0  0  0  0  0  0  0  0  0  0  0  0
   -8.0088    0.0895   -0.2633 H   0  0  0  0  0  0  0  0  0  0  0  0
   -6.7162   -0.4243   -2.3134 H   0  0  0  0  0  0  0  0  0  0  0  0
   -4.2548   -0.2849   -2.2989 H   0  0  0  0  0  0  0  0  0  0  0  0
  1  2  2  0
  2  3  1  0
  3  4  2  0
  4  5  1  0
  5  6  2  0
  6  7  1  0
  7  8  2  0
  8  9  1  0
  9 10  2  0
  6 11  1  0
 11 12  2  0
 12 13  1  0
 13 14  2  0
 14 15  1  0
 15 16  1  0
 16 17  1  0
 17 18  1  0
 18 19  1  0
 19 20  1  0
 20 21  2  0
 21 22  1  0
 22 23  2  0
 23 24  1  0
 24 25  2  0
 14 26  1  0
  1 10  1  0
  4  9  1  0
 26 11  1  0
 25 16  1  0
 20 25  1  0
  1 27  1  0
  2 28  1  0
  3 29  1  0
  7 30  1  0
  8 31  1  0
 10 32  1  0
 15 33  1  0
 16 34  1  0
 17 35  1  0
 17 36  1  0
 18 37  1  0
 18 38  1  0
 21 39  1  0
 22 40  1  0
 23 41  1  0
 24 42  1  0
M  END
$$$$
