
     RDKit          3D

 56 57  0  0  0  0  0  0  0  0999 V2000
   -3.2294   -1.0739   -2.1807 C   0  0  0  0  0  0  0  0  0  0  0  0
   -3.0472   -1.0859   -0.7679 O   0  0  0  0  0  0  0  0  0  0  0  0
   -2.3754   -0.0873   -0.0463 C   0  0  0  0  0  0  0  0  0  0  0  0
   -2.2357   -0.2479    1.3366 C   0  0  0  0  0  0  0  0  0  0  0  0
   -1.5574    0.7164    2.1070 C   0  0  0  0  0  0  0  0  0  0  0  0
   -1.0360    1.8526    1.4782 C   0  0  0  0  0  0  0  0  0  0  0  0
   -1.1890    2.0348    0.0985 C   0  0  0  0  0  0  0  0  0  0  0  0
   -1.8440    1.0599   -0.6631 C   0  0  0  0  0  0  0  0  0  0  0  0
   -0.5121    3.4533   -0.6969 S   0  0  0  0  0  0  0  0  0  0  0  0
   -1.5012    3.9643   -1.7071 O   0  0  0  0  0  0  0  0  0  0  0  0
   -0.2409    4.5450    0.3003 O   0  0  0  0  0  0  0  0  0  0  0  0
    0.9536    3.0056   -1.5022 N   0  0  0  0  0  0  0  0  0  0  0  0
    1.8392    2.0543   -0.9024 C   0  0  0  0  0  0  0  0  0  0  0  0
    1.9953    0.7959   -1.4987 C   0  0  0  0  0  0  0  0  0  0  0  0
    2.8224   -0.1694   -0.9120 C   0  0  0  0  0  0  0  0  0  0  0  0
    3.5252    0.1402    0.2573 C   0  0  0  0  0  0  0  0  0  0  0  0
    3.3805    1.3943    0.8547 C   0  0  0  0  0  0  0  0  0  0  0  0
    2.5336    2.3634    0.2826 C   0  0  0  0  0  0  0  0  0  0  0  0
    2.3734    3.6368    0.8513 O   0  0  0  0  0  0  0  0  0  0  0  0
    3.0161    4.0744    2.0443 C   0  0  0  0  0  0  0  0  0  0  0  0
    2.9647   -1.7772   -1.6137 S   0  0  0  0  0  0  0  0  0  0  0  0
    2.1650   -1.8697   -2.8840 O   0  0  0  0  0  0  0  0  0  0  0  0
    4.4095   -1.9964   -1.9655 O   0  0  0  0  0  0  0  0  0  0  0  0
    2.4702   -3.0351   -0.5027 N   0  0  0  0  0  0  0  0  0  0  0  0
    1.0879   -2.9699    0.0372 C   0  0  0  0  0  0  0  0  0  0  0  0
    0.0365   -2.7840   -1.0784 C   0  0  0  0  0  0  0  0  0  0  0  0
    0.8120   -4.3238    0.7246 C   0  0  0  0  0  0  0  0  0  0  0  0
    0.9345   -1.8562    1.0979 C   0  0  0  0  0  0  0  0  0  0  0  0
   -1.3811    0.5831    3.4921 O   0  0  0  0  0  0  0  0  0  0  0  0
   -1.8269   -0.5318    4.2570 C   0  0  0  0  0  0  0  0  0  0  0  0
   -2.2436   -1.0532   -2.6927 H   0  0  0  0  0  0  0  0  0  0  0  0
   -3.8364   -0.1941   -2.4814 H   0  0  0  0  0  0  0  0  0  0  0  0
   -3.7647   -1.9964   -2.4843 H   0  0  0  0  0  0  0  0  0  0  0  0
   -2.6493   -1.1346    1.7982 H   0  0  0  0  0  0  0  0  0  0  0  0
   -0.5080    2.5910    2.0690 H   0  0  0  0  0  0  0  0  0  0  0  0
   -1.9363    1.2029   -1.7311 H   0  0  0  0  0  0  0  0  0  0  0  0
    0.9729    3.1143   -2.5415 H   0  0  0  0  0  0  0  0  0  0  0  0
    1.4429    0.5648   -2.4008 H   0  0  0  0  0  0  0  0  0  0  0  0
    4.1714   -0.5973    0.7164 H   0  0  0  0  0  0  0  0  0  0  0  0
    3.9316    1.5993    1.7621 H   0  0  0  0  0  0  0  0  0  0  0  0
    4.1187    4.0599    1.9091 H   0  0  0  0  0  0  0  0  0  0  0  0
    2.7240    3.4247    2.8970 H   0  0  0  0  0  0  0  0  0  0  0  0
    2.6990    5.1147    2.2661 H   0  0  0  0  0  0  0  0  0  0  0  0
    3.1583   -3.0480    0.2850 H   0  0  0  0  0  0  0  0  0  0  0  0
    0.0609   -1.7517   -1.4860 H   0  0  0  0  0  0  0  0  0  0  0  0
   -0.9872   -2.9527   -0.6807 H   0  0  0  0  0  0  0  0  0  0  0  0
    0.2114   -3.5078   -1.9026 H   0  0  0  0  0  0  0  0  0  0  0  0
   -0.2193   -4.3662    1.1365 H   0  0  0  0  0  0  0  0  0  0  0  0
    0.9341   -5.1572   -0.0004 H   0  0  0  0  0  0  0  0  0  0  0  0
    1.5255   -4.4875    1.5614 H   0  0  0  0  0  0  0  0  0  0  0  0
    1.7910   -1.8594    1.8058 H   0  0  0  0  0  0  0  0  0  0  0  0
    0.0047   -2.0087    1.6872 H   0  0  0  0  0  0  0  0  0  0  0  0
    0.8508   -0.8545    0.6330 H   0  0  0  0  0  0  0  0  0  0  0  0
   -2.9310   -0.6281    4.1846 H   0  0  0  0  0  0  0  0  0  0  0  0
   -1.5543   -0.3750    5.3214 H   0  0  0  0  0  0  0  0  0  0  0  0
   -1.3383   -1.4615    3.8949 H   0  0  0  0  0  0  0  0  0  0  0  0
  1  2  1  0
  2  3  1  0
  3  4  2  0
  4  5  1  0
  5  6  2  0
  6  7  1  0
  7  8  2  0
  7  9  1  0
  9 10  2  0
  9 11  2  0
  9 12  1  0
 12 13  1  0
 13 14  2  0
 14 15  1  0
 15 16  2  0
 16 17  1  0
 17 18  2  0
 18 19  1  0
 19 20  1  0
 15 21  1  0
 21 22  2  0
 21 23  2  0
 21 24  1  0
 24 25  1  0
 25 26  1  0
 25 27  1  0
 25 28  1  0
  5 29  1  0
 29 30  1  0
  8  3  1  0
 13 18  1  0
  1 31  1  0
  1 32  1  0
  1 33  1  0
  4 34  1  0
  6 35  1  0
  8 36  1  0
 12 37  1  0
 14 38  1  0
 16 39  1  0
 17 40  1  0
 20 41  1  0
 20 42  1  0
 20 43  1  0
 24 44  1  0
 26 45  1  0
 26 46  1  0
 26 47  1  0
 27 48  1  0
 27 49  1  0
 27 50  1  0
 28 51  1  0
 28 52  1  0
 28 53  1  0
 30 54  1  0
 30 55  1  0
 30 56  1  0
M  END
$$$$
