
     RDKit          3D

 43 46  0  0  0  0  0  0  0  0999 V2000
   -5.3082    1.0351   -1.3191 C   0  0  0  0  0  0  0  0  0  0  0  0
   -4.0198    0.3778   -1.5036 N   0  0  0  0  0  0  0  0  0  0  0  0
   -3.8407   -0.9362   -2.0870 C   0  0  0  0  0  0  0  0  0  0  0  0
   -2.3193   -1.1588   -2.1474 C   0  0  0  0  0  0  0  0  0  0  0  0
   -1.6580   -0.0960   -1.2196 C   0  0  0  0  0  0  0  0  0  0  0  0
   -1.2223   -0.7518    0.1153 C   0  0  0  0  0  0  0  0  0  0  0  0
   -0.4358    0.2109    1.0107 C   0  0  0  0  0  0  0  0  0  0  0  0
    0.6685    0.8168    0.2587 N   0  0  0  0  0  0  0  0  0  0  0  0
    0.3530    1.4944   -1.0023 C   0  0  0  0  0  0  0  0  0  0  0  0
   -0.4482    0.5675   -1.9265 C   0  0  0  0  0  0  0  0  0  0  0  0
    1.8953    1.1354    0.9370 C   0  0  0  0  0  0  0  0  0  0  0  0
    2.3255    2.3203    0.9204 O   0  0  0  0  0  0  0  0  0  0  0  0
    2.6755    0.0876    1.6262 C   0  0  0  0  0  0  0  0  0  0  0  0
    2.5246   -1.2871    1.4670 C   0  0  0  0  0  0  0  0  0  0  0  0
    3.4794   -1.9024    2.2717 C   0  0  0  0  0  0  0  0  0  0  0  0
    4.1718   -0.8753    2.8792 C   0  0  0  0  0  0  0  0  0  0  0  0
    5.2308   -0.9412    3.7780 C   0  0  0  0  0  0  0  0  0  0  0  0
    5.7556    0.2725    4.2442 C   0  0  0  0  0  0  0  0  0  0  0  0
    5.2059    1.4885    3.7974 C   0  0  0  0  0  0  0  0  0  0  0  0
    4.1675    1.4774    2.9141 N   0  0  0  0  0  0  0  0  0  0  0  0
    3.6875    0.3107    2.4846 N   0  0  0  0  0  0  0  0  0  0  0  0
   -2.7889    0.8611   -1.0050 C   0  0  0  0  0  0  0  0  0  0  0  0
   -2.6866    1.9721   -0.4185 O   0  0  0  0  0  0  0  0  0  0  0  0
   -5.4989    1.1879   -0.2362 H   0  0  0  0  0  0  0  0  0  0  0  0
   -6.1243    0.4126   -1.7433 H   0  0  0  0  0  0  0  0  0  0  0  0
   -5.3014    2.0184   -1.8342 H   0  0  0  0  0  0  0  0  0  0  0  0
   -4.3163   -1.6993   -1.4335 H   0  0  0  0  0  0  0  0  0  0  0  0
   -4.2911   -0.9738   -3.1024 H   0  0  0  0  0  0  0  0  0  0  0  0
   -2.0673   -2.2021   -1.8560 H   0  0  0  0  0  0  0  0  0  0  0  0
   -1.9910   -1.0224   -3.2022 H   0  0  0  0  0  0  0  0  0  0  0  0
   -2.1101   -1.1280    0.6705 H   0  0  0  0  0  0  0  0  0  0  0  0
   -0.5694   -1.6260   -0.1014 H   0  0  0  0  0  0  0  0  0  0  0  0
   -1.1028    1.0108    1.3955 H   0  0  0  0  0  0  0  0  0  0  0  0
   -0.0587   -0.3502    1.8921 H   0  0  0  0  0  0  0  0  0  0  0  0
    1.2896    1.7841   -1.5281 H   0  0  0  0  0  0  0  0  0  0  0  0
   -0.2152    2.4248   -0.7931 H   0  0  0  0  0  0  0  0  0  0  0  0
   -0.7891    1.1447   -2.8143 H   0  0  0  0  0  0  0  0  0  0  0  0
    0.2375   -0.2302   -2.2899 H   0  0  0  0  0  0  0  0  0  0  0  0
    1.8137   -1.7913    0.8265 H   0  0  0  0  0  0  0  0  0  0  0  0
    3.6469   -2.9651    2.3878 H   0  0  0  0  0  0  0  0  0  0  0  0
    5.6355   -1.8901    4.1063 H   0  0  0  0  0  0  0  0  0  0  0  0
    6.5801    0.2739    4.9452 H   0  0  0  0  0  0  0  0  0  0  0  0
    5.6035    2.4299    4.1519 H   0  0  0  0  0  0  0  0  0  0  0  0
  1  2  1  0
  2  3  1  0
  3  4  1  0
  4  5  1  0
  5  6  1  0
  6  7  1  0
  7  8  1  0
  8  9  1  0
  9 10  1  0
  8 11  1  0
 11 12  2  0
 11 13  1  0
 13 14  2  0
 14 15  1  0
 15 16  2  0
 16 17  1  0
 17 18  2  0
 18 19  1  0
 19 20  2  0
 20 21  1  0
  5 22  1  0
 22 23  2  0
 22  2  1  0
 10  5  1  0
 21 13  1  0
 21 16  1  0
  1 24  1  0
  1 25  1  0
  1 26  1  0
  3 27  1  0
  3 28  1  0
  4 29  1  0
  4 30  1  0
  6 31  1  0
  6 32  1  0
  7 33  1  0
  7 34  1  0
  9 35  1  0
  9 36  1  0
 10 37  1  0
 10 38  1  0
 14 39  1  0
 15 40  1  0
 17 41  1  0
 18 42  1  0
 19 43  1  0
M  END
$$$$
