
     RDKit          3D

 41 44  0  0  0  0  0  0  0  0999 V2000
   -1.5779   -1.4424    0.2890 O   0  0  0  0  0  0  0  0  0  0  0  0
   -0.6246   -1.8341    1.0170 C   0  0  0  0  0  0  0  0  0  0  0  0
    0.7033   -1.9108    0.4705 N   0  0  0  0  0  0  0  0  0  0  0  0
    1.1342   -1.1664   -0.6822 C   0  0  0  0  0  0  0  0  0  0  0  0
    2.1351   -1.6950   -1.5093 C   0  0  0  0  0  0  0  0  0  0  0  0
    2.5858   -0.9779   -2.6190 C   0  0  0  0  0  0  0  0  0  0  0  0
    2.0473    0.2773   -2.9102 C   0  0  0  0  0  0  0  0  0  0  0  0
    1.0518    0.8312   -2.0889 C   0  0  0  0  0  0  0  0  0  0  0  0
    0.6131    0.1093   -0.9652 C   0  0  0  0  0  0  0  0  0  0  0  0
    0.4950    2.1680   -2.3983 C   0  0  0  0  0  0  0  0  0  0  0  0
    1.1887    3.1700   -2.9859 N   0  0  0  0  0  0  0  0  0  0  0  0
    0.4063    4.2295   -3.1479 N   0  0  0  0  0  0  0  0  0  0  0  0
   -0.8004    3.9051   -2.6494 C   0  0  0  0  0  0  0  0  0  0  0  0
   -2.0416    4.7321   -2.6928 C   0  0  0  0  0  0  0  0  0  0  0  0
   -3.1260    4.0472   -1.8309 C   0  0  0  0  0  0  0  0  0  0  0  0
   -3.1952    2.6491   -2.0975 O   0  0  0  0  0  0  0  0  0  0  0  0
   -2.0294    1.9820   -1.6248 C   0  0  0  0  0  0  0  0  0  0  0  0
   -0.7958    2.6201   -2.1913 C   0  0  0  0  0  0  0  0  0  0  0  0
   -0.8986   -2.2557    2.4120 C   0  0  0  0  0  0  0  0  0  0  0  0
   -2.2100   -2.5527    2.8226 C   0  0  0  0  0  0  0  0  0  0  0  0
   -2.4603   -2.9332    4.1035 N   0  0  0  0  0  0  0  0  0  0  0  0
   -1.4698   -3.0341    5.0276 C   0  0  0  0  0  0  0  0  0  0  0  0
   -0.1517   -2.7395    4.6755 C   0  0  0  0  0  0  0  0  0  0  0  0
    0.8587   -2.8357    5.6296 O   0  0  0  0  0  0  0  0  0  0  0  0
    0.1331   -2.3468    3.3624 C   0  0  0  0  0  0  0  0  0  0  0  0
    1.3543   -2.6297    0.8595 H   0  0  0  0  0  0  0  0  0  0  0  0
    2.5611   -2.6675   -1.2967 H   0  0  0  0  0  0  0  0  0  0  0  0
    3.3527   -1.3974   -3.2573 H   0  0  0  0  0  0  0  0  0  0  0  0
    2.4014    0.8082   -3.7847 H   0  0  0  0  0  0  0  0  0  0  0  0
   -0.0971    0.5562   -0.2851 H   0  0  0  0  0  0  0  0  0  0  0  0
    2.1924    3.1443   -3.2716 H   0  0  0  0  0  0  0  0  0  0  0  0
   -2.3909    4.8025   -3.7449 H   0  0  0  0  0  0  0  0  0  0  0  0
   -1.8340    5.7525   -2.3068 H   0  0  0  0  0  0  0  0  0  0  0  0
   -2.9334    4.2346   -0.7494 H   0  0  0  0  0  0  0  0  0  0  0  0
   -4.1101    4.5033   -2.0680 H   0  0  0  0  0  0  0  0  0  0  0  0
   -1.9966    2.0079   -0.5137 H   0  0  0  0  0  0  0  0  0  0  0  0
   -2.0730    0.9214   -1.9489 H   0  0  0  0  0  0  0  0  0  0  0  0
   -3.0351   -2.4912    2.1248 H   0  0  0  0  0  0  0  0  0  0  0  0
   -1.7085   -3.3395    6.0378 H   0  0  0  0  0  0  0  0  0  0  0  0
    1.8237   -2.6271    5.4015 H   0  0  0  0  0  0  0  0  0  0  0  0
    1.1525   -2.0972    3.0991 H   0  0  0  0  0  0  0  0  0  0  0  0
  1  2  2  0
  2  3  1  0
  3  4  1  0
  4  5  2  0
  5  6  1  0
  6  7  2  0
  7  8  1  0
  8  9  2  0
  8 10  1  0
 10 11  1  0
 11 12  1  0
 12 13  2  0
 13 14  1  0
 14 15  1  0
 15 16  1  0
 16 17  1  0
 17 18  1  0
  2 19  1  0
 19 20  2  0
 20 21  1  0
 21 22  2  0
 22 23  1  0
 23 24  1  0
 23 25  2  0
  4  9  1  0
 10 18  2  0
 18 13  1  0
 25 19  1  0
  3 26  1  0
  5 27  1  0
  6 28  1  0
  7 29  1  0
  9 30  1  0
 11 31  1  0
 14 32  1  0
 14 33  1  0
 15 34  1  0
 15 35  1  0
 17 36  1  0
 17 37  1  0
 20 38  1  0
 22 39  1  0
 24 40  1  0
 25 41  1  0
M  END
$$$$
