
     RDKit          3D

 40 42  0  0  0  0  0  0  0  0999 V2000
    0.0641   -1.6576   -1.0977 O   0  0  0  0  0  0  0  0  0  0  0  0
   -0.5392   -0.6315   -0.6791 C   0  0  0  0  0  0  0  0  0  0  0  0
   -1.3374    0.1451   -1.5885 N   0  0  0  0  0  0  0  0  0  0  0  0
   -1.1616    0.1331   -3.0160 C   0  0  0  0  0  0  0  0  0  0  0  0
   -2.2643    0.3731   -3.8484 C   0  0  0  0  0  0  0  0  0  0  0  0
   -2.1140    0.3875   -5.2379 C   0  0  0  0  0  0  0  0  0  0  0  0
   -0.8591    0.1783   -5.8204 C   0  0  0  0  0  0  0  0  0  0  0  0
    0.2542   -0.0434   -4.9878 C   0  0  0  0  0  0  0  0  0  0  0  0
    0.1040   -0.0589   -3.5977 C   0  0  0  0  0  0  0  0  0  0  0  0
   -0.7632    0.2007   -7.2204 O   0  0  0  0  0  0  0  0  0  0  0  0
    0.4467    0.0337   -7.9540 C   0  0  0  0  0  0  0  0  0  0  0  0
    1.3063    1.0853   -7.6922 F   0  0  0  0  0  0  0  0  0  0  0  0
    0.1570    0.0162   -9.3046 F   0  0  0  0  0  0  0  0  0  0  0  0
   -0.4555   -0.2717    0.7575 C   0  0  0  0  0  0  0  0  0  0  0  0
   -0.0352   -1.2248    1.7021 C   0  0  0  0  0  0  0  0  0  0  0  0
    0.0531   -0.8927    3.0570 C   0  0  0  0  0  0  0  0  0  0  0  0
   -0.2570    0.4066    3.4920 C   0  0  0  0  0  0  0  0  0  0  0  0
   -0.6902    1.3537    2.5547 C   0  0  0  0  0  0  0  0  0  0  0  0
   -0.7790    1.0237    1.1993 C   0  0  0  0  0  0  0  0  0  0  0  0
   -0.1978    0.7659    4.8827 N   0  0  0  0  0  0  0  0  0  0  0  0
    0.7910    0.2784    5.8011 C   0  0  0  0  0  0  0  0  0  0  0  0
    0.6328    0.4971    7.1346 N   0  0  0  0  0  0  0  0  0  0  0  0
    1.5635    0.0751    8.0299 C   0  0  0  0  0  0  0  0  0  0  0  0
    2.7072   -0.5856    7.5846 C   0  0  0  0  0  0  0  0  0  0  0  0
    2.8634   -0.7912    6.2150 C   0  0  0  0  0  0  0  0  0  0  0  0
    1.9104   -0.3537    5.3517 N   0  0  0  0  0  0  0  0  0  0  0  0
   -2.1621    0.6580   -1.2027 H   0  0  0  0  0  0  0  0  0  0  0  0
   -3.2444    0.5401   -3.4194 H   0  0  0  0  0  0  0  0  0  0  0  0
   -2.9778    0.5645   -5.8662 H   0  0  0  0  0  0  0  0  0  0  0  0
    1.2406   -0.1978   -5.4025 H   0  0  0  0  0  0  0  0  0  0  0  0
    0.9813   -0.1986   -2.9802 H   0  0  0  0  0  0  0  0  0  0  0  0
    0.9308   -0.9280   -7.6821 H   0  0  0  0  0  0  0  0  0  0  0  0
    0.2092   -2.2345    1.3962 H   0  0  0  0  0  0  0  0  0  0  0  0
    0.3389   -1.6593    3.7649 H   0  0  0  0  0  0  0  0  0  0  0  0
   -0.9447    2.3566    2.8744 H   0  0  0  0  0  0  0  0  0  0  0  0
   -1.0841    1.7910    0.5002 H   0  0  0  0  0  0  0  0  0  0  0  0
   -0.8661    1.4893    5.2331 H   0  0  0  0  0  0  0  0  0  0  0  0
    1.4159    0.2554    9.0863 H   0  0  0  0  0  0  0  0  0  0  0  0
    3.4581   -0.9270    8.2853 H   0  0  0  0  0  0  0  0  0  0  0  0
    3.7426   -1.2955    5.8370 H   0  0  0  0  0  0  0  0  0  0  0  0
  1  2  2  0
  2  3  1  0
  3  4  1  0
  4  5  2  0
  5  6  1  0
  6  7  2  0
  7  8  1  0
  8  9  2  0
  7 10  1  0
 10 11  1  0
 11 12  1  0
 11 13  1  0
  2 14  1  0
 14 15  2  0
 15 16  1  0
 16 17  2  0
 17 18  1  0
 18 19  2  0
 17 20  1  0
 20 21  1  0
 21 22  2  0
 22 23  1  0
 23 24  2  0
 24 25  1  0
 25 26  2  0
  4  9  1  0
 14 19  1  0
 21 26  1  0
  3 27  1  0
  5 28  1  0
  6 29  1  0
  8 30  1  0
  9 31  1  0
 11 32  1  0
 15 33  1  0
 16 34  1  0
 18 35  1  0
 19 36  1  0
 20 37  1  0
 23 38  1  0
 24 39  1  0
 25 40  1  0
M  END
$$$$
