
     RDKit          3D

 54 56  0  0  0  0  0  0  0  0999 V2000
   -4.4273    3.8861    4.3016 C   0  0  0  0  0  0  0  0  0  0  0  0
   -4.0806    2.6829    3.6234 O   0  0  0  0  0  0  0  0  0  0  0  0
   -2.7982    2.3929    3.1312 C   0  0  0  0  0  0  0  0  0  0  0  0
   -1.7120    3.2777    3.2838 C   0  0  0  0  0  0  0  0  0  0  0  0
   -0.4502    2.9376    2.7851 C   0  0  0  0  0  0  0  0  0  0  0  0
   -0.2501    1.7168    2.1179 C   0  0  0  0  0  0  0  0  0  0  0  0
   -1.3395    0.8411    1.9632 C   0  0  0  0  0  0  0  0  0  0  0  0
   -2.5989    1.1788    2.4678 C   0  0  0  0  0  0  0  0  0  0  0  0
    1.1307    1.3464    1.6117 C   0  0  2  0  0  0  0  0  0  0  0  0
    1.0721    1.0053    0.1842 N   0  0  0  0  0  0  0  0  0  0  0  0
    1.4137    1.9536   -0.8411 C   0  0  0  0  0  0  0  0  0  0  0  0
    1.9180    3.0671   -0.5226 O   0  0  0  0  0  0  0  0  0  0  0  0
    1.1178    1.6982   -2.2707 C   0  0  0  0  0  0  0  0  0  0  0  0
    0.5344    2.7428   -3.0138 C   0  0  0  0  0  0  0  0  0  0  0  0
    0.3260    2.6145   -4.3875 C   0  0  0  0  0  0  0  0  0  0  0  0
    0.7208    1.4531   -5.0466 C   0  0  0  0  0  0  0  0  0  0  0  0
    1.3151    0.4131   -4.3322 C   0  0  0  0  0  0  0  0  0  0  0  0
    1.4957    0.5083   -2.9432 C   0  0  0  0  0  0  0  0  0  0  0  0
    2.3009   -0.8734   -2.1110 S   0  0  0  0  0  0  0  0  0  0  0  0
    0.8423   -1.9773   -2.2057 C   0  0  0  0  0  0  0  0  0  0  0  0
    1.2488   -3.3870   -1.8881 C   0  0  0  0  0  0  0  0  0  0  0  0
    1.4246   -4.1977   -2.8387 O   0  0  0  0  0  0  0  0  0  0  0  0
    1.4708   -3.8200   -0.5344 N   0  0  0  0  0  0  0  0  0  0  0  0
    1.9227   -5.1574   -0.1976 C   0  0  0  0  0  0  0  0  0  0  0  0
    2.2476   -5.1198    1.2903 C   0  0  0  0  0  0  0  0  0  0  0  0
    1.5836   -3.8577    1.8334 C   0  0  0  0  0  0  0  0  0  0  0  0
    1.3378   -2.9620    0.6282 C   0  0  0  0  0  0  0  0  0  0  0  0
    1.7160    0.1847    2.4230 C   0  0  0  0  0  0  0  0  0  0  0  0
    2.9767   -0.1316    1.9444 F   0  0  0  0  0  0  0  0  0  0  0  0
    1.8244    0.5493    3.7537 F   0  0  0  0  0  0  0  0  0  0  0  0
   -4.2576    4.7605    3.6359 H   0  0  0  0  0  0  0  0  0  0  0  0
   -3.8266    3.9870    5.2288 H   0  0  0  0  0  0  0  0  0  0  0  0
   -5.5044    3.8513    4.5746 H   0  0  0  0  0  0  0  0  0  0  0  0
   -1.8336    4.2244    3.7865 H   0  0  0  0  0  0  0  0  0  0  0  0
    0.3727    3.6313    2.9234 H   0  0  0  0  0  0  0  0  0  0  0  0
   -1.2193   -0.1069    1.4530 H   0  0  0  0  0  0  0  0  0  0  0  0
   -3.4267    0.4869    2.3437 H   0  0  0  0  0  0  0  0  0  0  0  0
    1.8234    2.2043    1.7596 H   0  0  0  0  0  0  0  0  0  0  0  0
    0.5797    0.1293   -0.0921 H   0  0  0  0  0  0  0  0  0  0  0  0
    0.2406    3.6655   -2.5282 H   0  0  0  0  0  0  0  0  0  0  0  0
   -0.1301    3.4229   -4.9441 H   0  0  0  0  0  0  0  0  0  0  0  0
    0.5728    1.3605   -6.1146 H   0  0  0  0  0  0  0  0  0  0  0  0
    1.6304   -0.4771   -4.8624 H   0  0  0  0  0  0  0  0  0  0  0  0
    0.4143   -1.9532   -3.2315 H   0  0  0  0  0  0  0  0  0  0  0  0
    0.0485   -1.6379   -1.5108 H   0  0  0  0  0  0  0  0  0  0  0  0
    1.1113   -5.8873   -0.4029 H   0  0  0  0  0  0  0  0  0  0  0  0
    2.8276   -5.4215   -0.7866 H   0  0  0  0  0  0  0  0  0  0  0  0
    1.8733   -6.0294    1.8086 H   0  0  0  0  0  0  0  0  0  0  0  0
    3.3491   -5.0464    1.4310 H   0  0  0  0  0  0  0  0  0  0  0  0
    2.2276   -3.3556    2.5854 H   0  0  0  0  0  0  0  0  0  0  0  0
    0.6122   -4.1225    2.3051 H   0  0  0  0  0  0  0  0  0  0  0  0
    0.3185   -2.5204    0.6770 H   0  0  0  0  0  0  0  0  0  0  0  0
    2.1029   -2.1616    0.5816 H   0  0  0  0  0  0  0  0  0  0  0  0
    1.0651   -0.7115    2.3543 H   0  0  0  0  0  0  0  0  0  0  0  0
  1  2  1  0
  2  3  1  0
  3  4  2  0
  4  5  1  0
  5  6  2  0
  6  7  1  0
  7  8  2  0
  6  9  1  0
  9 10  1  0
 10 11  1  0
 11 12  2  0
 11 13  1  0
 13 14  2  0
 14 15  1  0
 15 16  2  0
 16 17  1  0
 17 18  2  0
 18 19  1  0
 19 20  1  0
 20 21  1  0
 21 22  2  0
 21 23  1  0
 23 24  1  0
 24 25  1  0
 25 26  1  0
 26 27  1  0
  9 28  1  0
 28 29  1  0
 28 30  1  0
  3  8  1  0
 13 18  1  0
 27 23  1  0
  1 31  1  0
  1 32  1  0
  1 33  1  0
  4 34  1  0
  5 35  1  0
  7 36  1  0
  8 37  1  0
  9 38  1  6
 10 39  1  0
 14 40  1  0
 15 41  1  0
 16 42  1  0
 17 43  1  0
 20 44  1  0
 20 45  1  0
 24 46  1  0
 24 47  1  0
 25 48  1  0
 25 49  1  0
 26 50  1  0
 26 51  1  0
 27 52  1  0
 27 53  1  0
 28 54  1  0
M  END
$$$$
