
     RDKit          3D

 44 47  0  0  0  0  0  0  0  0999 V2000
   -1.6258    3.6635    1.8086 C   0  0  0  0  0  0  0  0  0  0  0  0
   -1.1948    2.3436    1.9664 C   0  0  0  0  0  0  0  0  0  0  0  0
    0.0712    1.9612    1.5127 C   0  0  0  0  0  0  0  0  0  0  0  0
    0.9107    2.8982    0.8805 C   0  0  0  0  0  0  0  0  0  0  0  0
    0.4789    4.2242    0.7486 C   0  0  0  0  0  0  0  0  0  0  0  0
   -0.7872    4.6046    1.2050 C   0  0  0  0  0  0  0  0  0  0  0  0
    2.1868    2.5554    0.4102 O   0  0  0  0  0  0  0  0  0  0  0  0
    2.5347    1.3065   -0.1202 C   0  0  0  0  0  0  0  0  0  0  0  0
    3.8811    0.9620   -0.2405 C   0  0  0  0  0  0  0  0  0  0  0  0
    4.2062   -0.2798   -0.7857 C   0  0  0  0  0  0  0  0  0  0  0  0
    3.2207   -1.1213   -1.1933 N   0  0  0  0  0  0  0  0  0  0  0  0
    1.9114   -0.7715   -1.0815 C   0  0  0  0  0  0  0  0  0  0  0  0
    1.5810    0.4378   -0.5527 N   0  0  0  0  0  0  0  0  0  0  0  0
    0.8913   -1.6776   -1.5214 N   0  0  0  0  0  0  0  0  0  0  0  0
   -0.5382   -1.3451   -1.4516 C   0  0  0  0  0  0  0  0  0  0  0  0
   -1.3564   -2.2930   -2.3759 C   0  0  0  0  0  0  0  0  0  0  0  0
   -1.4591   -3.7522   -1.8513 C   0  0  0  0  0  0  0  0  0  0  0  0
   -1.2716   -3.8288   -0.3283 C   0  0  0  0  0  0  0  0  0  0  0  0
   -1.8802   -4.9533    0.2523 O   0  0  0  0  0  0  0  0  0  0  0  0
   -2.1663   -4.5816    1.5903 C   0  0  0  0  0  0  0  0  0  0  0  0
   -1.9665   -3.0720    1.7563 C   0  0  0  0  0  0  0  0  0  0  0  0
   -1.8811   -2.6176    0.3288 C   0  0  0  0  0  0  0  0  0  0  0  0
   -1.0360   -1.3679    0.0305 C   0  0  0  0  0  0  0  0  0  0  0  0
   -2.6053    3.9589    2.1619 H   0  0  0  0  0  0  0  0  0  0  0  0
   -1.8379    1.6185    2.4484 H   0  0  0  0  0  0  0  0  0  0  0  0
    0.4021    0.9458    1.6807 H   0  0  0  0  0  0  0  0  0  0  0  0
    1.1222    4.9584    0.2806 H   0  0  0  0  0  0  0  0  0  0  0  0
   -1.1180    5.6288    1.0906 H   0  0  0  0  0  0  0  0  0  0  0  0
    4.6588    1.6408    0.0852 H   0  0  0  0  0  0  0  0  0  0  0  0
    5.2421   -0.5750   -0.8859 H   0  0  0  0  0  0  0  0  0  0  0  0
    1.1940   -2.5791   -1.9556 H   0  0  0  0  0  0  0  0  0  0  0  0
   -0.6719   -0.3145   -1.8500 H   0  0  0  0  0  0  0  0  0  0  0  0
   -0.9181   -2.2944   -3.3976 H   0  0  0  0  0  0  0  0  0  0  0  0
   -2.3842   -1.8780   -2.4701 H   0  0  0  0  0  0  0  0  0  0  0  0
   -2.4522   -4.1676   -2.1303 H   0  0  0  0  0  0  0  0  0  0  0  0
   -0.6840   -4.3809   -2.3409 H   0  0  0  0  0  0  0  0  0  0  0  0
   -0.1771   -3.8745   -0.1103 H   0  0  0  0  0  0  0  0  0  0  0  0
   -1.5014   -5.1402    2.2838 H   0  0  0  0  0  0  0  0  0  0  0  0
   -3.2201   -4.8497    1.8186 H   0  0  0  0  0  0  0  0  0  0  0  0
   -1.0182   -2.8717    2.3031 H   0  0  0  0  0  0  0  0  0  0  0  0
   -2.8194   -2.5957    2.2871 H   0  0  0  0  0  0  0  0  0  0  0  0
   -2.9183   -2.4623   -0.0526 H   0  0  0  0  0  0  0  0  0  0  0  0
   -0.1708   -1.3228    0.7266 H   0  0  0  0  0  0  0  0  0  0  0  0
   -1.6582   -0.4677    0.2267 H   0  0  0  0  0  0  0  0  0  0  0  0
  1  2  2  0
  2  3  1  0
  3  4  2  0
  4  5  1  0
  5  6  2  0
  4  7  1  0
  7  8  1  0
  8  9  2  0
  9 10  1  0
 10 11  2  0
 11 12  1  0
 12 13  2  0
 12 14  1  0
 14 15  1  0
 15 16  1  0
 16 17  1  0
 17 18  1  0
 18 19  1  0
 19 20  1  0
 20 21  1  0
 21 22  1  0
 22 23  1  0
  6  1  1  0
  8 13  1  0
 23 15  1  0
 22 18  1  0
  1 24  1  0
  2 25  1  0
  3 26  1  0
  5 27  1  0
  6 28  1  0
  9 29  1  0
 10 30  1  0
 14 31  1  0
 15 32  1  0
 16 33  1  0
 16 34  1  0
 17 35  1  0
 17 36  1  0
 18 37  1  0
 20 38  1  0
 20 39  1  0
 21 40  1  0
 21 41  1  0
 22 42  1  0
 23 43  1  0
 23 44  1  0
M  END
$$$$
