
     RDKit          3D

 42 45  0  0  0  0  0  0  0  0999 V2000
   -2.6427    0.4671    2.9233 O   0  0  0  0  0  0  0  0  0  0  0  0
   -2.2793    0.2227    1.7414 C   0  0  0  0  0  0  0  0  0  0  0  0
   -3.3021    0.2385    0.6789 C   0  0  0  0  0  0  0  0  0  0  0  0
   -4.5264   -0.3929    0.7371 C   0  0  0  0  0  0  0  0  0  0  0  0
   -5.1434   -0.2346   -0.4465 N   0  0  0  0  0  0  0  0  0  0  0  0
   -4.3813    0.4808   -1.2581 N   0  0  0  0  0  0  0  0  0  0  0  0
   -3.2491    0.7919   -0.5955 C   0  0  0  0  0  0  0  0  0  0  0  0
   -2.2064    1.6627   -1.1635 C   0  0  0  0  0  0  0  0  0  0  0  0
   -1.9936    1.8754   -2.5220 C   0  0  0  0  0  0  0  0  0  0  0  0
   -0.9628    2.7848   -2.7869 C   0  0  0  0  0  0  0  0  0  0  0  0
   -0.3807    3.2977   -1.6377 C   0  0  0  0  0  0  0  0  0  0  0  0
    0.9306    4.4562   -1.5834 Cl  0  0  0  0  0  0  0  0  0  0  0  0
   -1.1385    2.6346   -0.2947 S   0  0  0  0  0  0  0  0  0  0  0  0
   -0.9036   -0.1250    1.4728 N   0  0  0  0  0  0  0  0  0  0  0  0
   -0.5348   -0.9024    0.2833 C   0  0  0  0  0  0  0  0  0  0  0  0
    0.5626   -1.9109    0.6346 C   0  0  0  0  0  0  0  0  0  0  0  0
    1.7152   -1.2661    1.2941 N   0  0  0  0  0  0  0  0  0  0  0  0
    2.5059   -0.4222    0.3700 C   0  0  0  0  0  0  0  0  0  0  0  0
    3.9537   -0.3060    0.8696 C   0  0  0  0  0  0  0  0  0  0  0  0
    5.0111   -0.1536   -0.2141 C   0  0  0  0  0  0  0  0  0  0  0  0
    4.8566   -1.4783    0.5182 C   0  0  0  0  0  0  0  0  0  0  0  0
    1.2957   -0.5624    2.5266 C   0  0  0  0  0  0  0  0  0  0  0  0
    0.1721    0.4591    2.2845 C   0  0  0  0  0  0  0  0  0  0  0  0
   -4.9272   -0.9559    1.5701 H   0  0  0  0  0  0  0  0  0  0  0  0
   -6.0811   -0.6134   -0.7045 H   0  0  0  0  0  0  0  0  0  0  0  0
   -2.5619    1.3844   -3.3014 H   0  0  0  0  0  0  0  0  0  0  0  0
   -0.6559    3.0619   -3.7866 H   0  0  0  0  0  0  0  0  0  0  0  0
   -0.1755   -0.2200   -0.5149 H   0  0  0  0  0  0  0  0  0  0  0  0
   -1.4081   -1.4671   -0.1082 H   0  0  0  0  0  0  0  0  0  0  0  0
    0.8883   -2.4477   -0.2832 H   0  0  0  0  0  0  0  0  0  0  0  0
    0.1390   -2.6828    1.3145 H   0  0  0  0  0  0  0  0  0  0  0  0
    2.4940   -0.8567   -0.6555 H   0  0  0  0  0  0  0  0  0  0  0  0
    2.0786    0.5974    0.2787 H   0  0  0  0  0  0  0  0  0  0  0  0
    4.1857    0.2125    1.8237 H   0  0  0  0  0  0  0  0  0  0  0  0
    5.9072    0.4255    0.0938 H   0  0  0  0  0  0  0  0  0  0  0  0
    4.6527   -0.1756   -1.2655 H   0  0  0  0  0  0  0  0  0  0  0  0
    4.3958   -2.2836   -0.0935 H   0  0  0  0  0  0  0  0  0  0  0  0
    5.6569   -1.6795    1.2612 H   0  0  0  0  0  0  0  0  0  0  0  0
    2.1603   -0.0517    3.0003 H   0  0  0  0  0  0  0  0  0  0  0  0
    0.9378   -1.3151    3.2629 H   0  0  0  0  0  0  0  0  0  0  0  0
    0.5726    1.3589    1.7751 H   0  0  0  0  0  0  0  0  0  0  0  0
   -0.2102    0.7917    3.2733 H   0  0  0  0  0  0  0  0  0  0  0  0
  1  2  2  0
  2  3  1  0
  3  4  2  0
  4  5  1  0
  5  6  1  0
  6  7  2  0
  7  8  1  0
  8  9  2  0
  9 10  1  0
 10 11  2  0
 11 12  1  0
 11 13  1  0
  2 14  1  0
 14 15  1  0
 15 16  1  0
 16 17  1  0
 17 18  1  0
 18 19  1  0
 19 20  1  0
 20 21  1  0
 17 22  1  0
 22 23  1  0
  7  3  1  0
 13  8  1  0
 23 14  1  0
 21 19  1  0
  4 24  1  0
  5 25  1  0
  9 26  1  0
 10 27  1  0
 15 28  1  0
 15 29  1  0
 16 30  1  0
 16 31  1  0
 18 32  1  0
 18 33  1  0
 19 34  1  0
 20 35  1  0
 20 36  1  0
 21 37  1  0
 21 38  1  0
 22 39  1  0
 22 40  1  0
 23 41  1  0
 23 42  1  0
M  END
$$$$
