
     RDKit          3D

 45 47  0  0  0  0  0  0  0  0999 V2000
   -4.1759   -2.4335   -2.1883 C   0  0  0  0  0  0  0  0  0  0  0  0
   -2.7872   -2.4491   -2.8514 C   0  0  0  0  0  0  0  0  0  0  0  0
   -1.7567   -2.1168   -1.8597 N   0  0  0  0  0  0  0  0  0  0  0  0
   -0.3665   -2.4176   -2.0674 C   0  0  0  0  0  0  0  0  0  0  0  0
   -0.0311   -3.2104   -2.9899 O   0  0  0  0  0  0  0  0  0  0  0  0
    0.6801   -1.8235   -1.2024 C   0  0  0  0  0  0  0  0  0  0  0  0
    1.9297   -2.4548   -1.0717 C   0  0  0  0  0  0  0  0  0  0  0  0
    2.9250   -1.8980   -0.2634 C   0  0  0  0  0  0  0  0  0  0  0  0
    2.6915   -0.7071    0.4308 C   0  0  0  0  0  0  0  0  0  0  0  0
    1.4567   -0.0541    0.2783 C   0  0  0  0  0  0  0  0  0  0  0  0
    0.4592   -0.6088   -0.5287 C   0  0  0  0  0  0  0  0  0  0  0  0
    3.7209   -0.1738    1.2204 O   0  0  0  0  0  0  0  0  0  0  0  0
    3.5412    0.6017    2.3754 C   0  0  0  0  0  0  0  0  0  0  0  0
    2.4405    0.4171    3.2328 C   0  0  0  0  0  0  0  0  0  0  0  0
    2.3057    1.2000    4.3836 C   0  0  0  0  0  0  0  0  0  0  0  0
    3.2706    2.1640    4.6930 C   0  0  0  0  0  0  0  0  0  0  0  0
    3.0991    3.1470    6.1354 Cl  0  0  0  0  0  0  0  0  0  0  0  0
    4.3764    2.3379    3.8542 C   0  0  0  0  0  0  0  0  0  0  0  0
    4.5137    1.5542    2.7042 C   0  0  0  0  0  0  0  0  0  0  0  0
   -2.6650   -1.5023   -4.0827 C   0  0  0  0  0  0  0  0  0  0  0  0
   -3.6285   -1.8425   -5.2083 C   0  0  0  0  0  0  0  0  0  0  0  0
   -4.7337   -0.7987   -5.1298 C   0  0  0  0  0  0  0  0  0  0  0  0
   -4.3045    0.2818   -4.2379 N   0  0  0  0  0  0  0  0  0  0  0  0
   -2.9546   -0.0347   -3.7705 C   0  0  0  0  0  0  0  0  0  0  0  0
   -4.9626   -2.7477   -2.9037 H   0  0  0  0  0  0  0  0  0  0  0  0
   -4.1887   -3.1510   -1.3404 H   0  0  0  0  0  0  0  0  0  0  0  0
   -4.4210   -1.4274   -1.7907 H   0  0  0  0  0  0  0  0  0  0  0  0
   -2.6147   -3.4924   -3.1985 H   0  0  0  0  0  0  0  0  0  0  0  0
   -2.0476   -1.6923   -0.9499 H   0  0  0  0  0  0  0  0  0  0  0  0
    2.1348   -3.3848   -1.5875 H   0  0  0  0  0  0  0  0  0  0  0  0
    3.8801   -2.3991   -0.1696 H   0  0  0  0  0  0  0  0  0  0  0  0
    1.2731    0.8962    0.7620 H   0  0  0  0  0  0  0  0  0  0  0  0
   -0.4706   -0.0677   -0.6457 H   0  0  0  0  0  0  0  0  0  0  0  0
    1.6987   -0.3423    3.0234 H   0  0  0  0  0  0  0  0  0  0  0  0
    1.4546    1.0527    5.0362 H   0  0  0  0  0  0  0  0  0  0  0  0
    5.1293    3.0784    4.0920 H   0  0  0  0  0  0  0  0  0  0  0  0
    5.3731    1.6937    2.0609 H   0  0  0  0  0  0  0  0  0  0  0  0
   -1.6263   -1.5884   -4.4737 H   0  0  0  0  0  0  0  0  0  0  0  0
   -3.1049   -1.7469   -6.1857 H   0  0  0  0  0  0  0  0  0  0  0  0
   -4.0343   -2.8751   -5.1357 H   0  0  0  0  0  0  0  0  0  0  0  0
   -5.6725   -1.2658   -4.7549 H   0  0  0  0  0  0  0  0  0  0  0  0
   -4.9392   -0.3810   -6.1386 H   0  0  0  0  0  0  0  0  0  0  0  0
   -4.9462    0.3077   -3.4106 H   0  0  0  0  0  0  0  0  0  0  0  0
   -2.2366    0.6057   -4.3276 H   0  0  0  0  0  0  0  0  0  0  0  0
   -2.8368    0.2041   -2.6901 H   0  0  0  0  0  0  0  0  0  0  0  0
  1  2  1  0
  2  3  1  0
  3  4  1  0
  4  5  2  0
  4  6  1  0
  6  7  2  0
  7  8  1  0
  8  9  2  0
  9 10  1  0
 10 11  2  0
  9 12  1  0
 12 13  1  0
 13 14  2  0
 14 15  1  0
 15 16  2  0
 16 17  1  0
 16 18  1  0
 18 19  2  0
  2 20  1  0
 20 21  1  0
 21 22  1  0
 22 23  1  0
 23 24  1  0
  6 11  1  0
 13 19  1  0
 24 20  1  0
  1 25  1  0
  1 26  1  0
  1 27  1  0
  2 28  1  0
  3 29  1  0
  7 30  1  0
  8 31  1  0
 10 32  1  0
 11 33  1  0
 14 34  1  0
 15 35  1  0
 18 36  1  0
 19 37  1  0
 20 38  1  0
 21 39  1  0
 21 40  1  0
 22 41  1  0
 22 42  1  0
 23 43  1  0
 24 44  1  0
 24 45  1  0
M  END
$$$$
