
     RDKit          3D

 40 42  0  0  0  0  0  0  0  0999 V2000
   -2.0164   -0.4535    1.5293 C   0  0  0  0  0  0  0  0  0  0  0  0
   -1.7116   -1.8909    1.9741 C   0  0  0  0  0  0  0  0  0  0  0  0
   -0.5232   -1.9293    2.9593 C   0  0  0  0  0  0  0  0  0  0  0  0
    0.7609   -1.4656    2.3317 C   0  0  0  0  0  0  0  0  0  0  0  0
    1.4462   -2.2764    1.6512 O   0  0  0  0  0  0  0  0  0  0  0  0
    1.1826   -0.1017    2.4729 N   0  0  0  0  0  0  0  0  0  0  0  0
    2.2674    0.4665    1.6772 C   0  0  0  0  0  0  0  0  0  0  0  0
    1.7985    0.7030    0.2678 C   0  0  0  0  0  0  0  0  0  0  0  0
    0.9530    1.7838   -0.0174 C   0  0  0  0  0  0  0  0  0  0  0  0
    0.4688    1.9792   -1.3134 C   0  0  0  0  0  0  0  0  0  0  0  0
    0.8142    1.0929   -2.3498 C   0  0  0  0  0  0  0  0  0  0  0  0
    1.6629    0.0077   -2.0563 C   0  0  0  0  0  0  0  0  0  0  0  0
    2.1461   -0.1860   -0.7590 C   0  0  0  0  0  0  0  0  0  0  0  0
    0.3014    1.3077   -3.6816 N   0  0  0  0  0  0  0  0  0  0  0  0
    0.4060    0.5005   -4.7562 C   0  0  0  0  0  0  0  0  0  0  0  0
   -0.2069    1.0326   -5.8312 N   0  0  0  0  0  0  0  0  0  0  0  0
   -0.6843    2.1987   -5.3480 C   0  0  0  0  0  0  0  0  0  0  0  0
   -0.3849    2.3763   -4.0479 N   0  0  0  0  0  0  0  0  0  0  0  0
   -1.3995   -2.6645    0.8329 O   0  0  0  0  0  0  0  0  0  0  0  0
   -2.4338   -3.5850    0.6965 C   0  0  0  0  0  0  0  0  0  0  0  0
   -3.1542   -3.6036    2.0076 C   0  0  0  0  0  0  0  0  0  0  0  0
   -2.8518   -2.3990    2.6349 O   0  0  0  0  0  0  0  0  0  0  0  0
   -2.1866    0.2005    2.4111 H   0  0  0  0  0  0  0  0  0  0  0  0
   -1.1804   -0.0417    0.9265 H   0  0  0  0  0  0  0  0  0  0  0  0
   -2.9313   -0.4407    0.8994 H   0  0  0  0  0  0  0  0  0  0  0  0
   -0.3854   -2.9720    3.3205 H   0  0  0  0  0  0  0  0  0  0  0  0
   -0.7519   -1.3063    3.8513 H   0  0  0  0  0  0  0  0  0  0  0  0
    0.6487    0.5332    3.1084 H   0  0  0  0  0  0  0  0  0  0  0  0
    3.1526   -0.2058    1.7049 H   0  0  0  0  0  0  0  0  0  0  0  0
    2.5817    1.4349    2.1239 H   0  0  0  0  0  0  0  0  0  0  0  0
    0.6601    2.4700    0.7678 H   0  0  0  0  0  0  0  0  0  0  0  0
   -0.1853    2.8203   -1.5035 H   0  0  0  0  0  0  0  0  0  0  0  0
    1.9618   -0.6933   -2.8217 H   0  0  0  0  0  0  0  0  0  0  0  0
    2.7896   -1.0330   -0.5560 H   0  0  0  0  0  0  0  0  0  0  0  0
    0.9020   -0.4595   -4.7728 H   0  0  0  0  0  0  0  0  0  0  0  0
   -1.2460    2.9098   -5.9385 H   0  0  0  0  0  0  0  0  0  0  0  0
   -2.0222   -4.5875    0.4528 H   0  0  0  0  0  0  0  0  0  0  0  0
   -3.1136   -3.2537   -0.1186 H   0  0  0  0  0  0  0  0  0  0  0  0
   -4.2516   -3.6913    1.8590 H   0  0  0  0  0  0  0  0  0  0  0  0
   -2.7960   -4.4459    2.6390 H   0  0  0  0  0  0  0  0  0  0  0  0
  1  2  1  0
  2  3  1  0
  3  4  1  0
  4  5  2  0
  4  6  1  0
  6  7  1  0
  7  8  1  0
  8  9  2  0
  9 10  1  0
 10 11  2  0
 11 12  1  0
 12 13  2  0
 11 14  1  0
 14 15  1  0
 15 16  2  0
 16 17  1  0
 17 18  2  0
  2 19  1  0
 19 20  1  0
 20 21  1  0
 21 22  1  0
 22  2  1  0
  8 13  1  0
 18 14  1  0
  1 23  1  0
  1 24  1  0
  1 25  1  0
  3 26  1  0
  3 27  1  0
  6 28  1  0
  7 29  1  0
  7 30  1  0
  9 31  1  0
 10 32  1  0
 12 33  1  0
 13 34  1  0
 15 35  1  0
 17 36  1  0
 20 37  1  0
 20 38  1  0
 21 39  1  0
 21 40  1  0
M  END
$$$$
