
     RDKit          3D

 52 56  0  0  0  0  0  0  0  0999 V2000
   -1.8741   -2.1889    1.6111 O   0  0  0  0  0  0  0  0  0  0  0  0
   -0.9672   -1.6456    0.9241 C   0  0  0  0  0  0  0  0  0  0  0  0
   -1.1460   -0.3254    0.3849 N   0  0  0  0  0  0  0  0  0  0  0  0
   -2.2762    0.5165    0.6754 C   0  0  0  0  0  0  0  0  0  0  0  0
   -3.2537    0.1502    1.5451 N   0  0  0  0  0  0  0  0  0  0  0  0
   -4.0812    1.2067    1.5378 C   0  0  0  0  0  0  0  0  0  0  0  0
   -5.2576    1.3582    2.2677 C   0  0  0  0  0  0  0  0  0  0  0  0
   -5.9739    2.5582    2.1156 C   0  0  0  0  0  0  0  0  0  0  0  0
   -5.5005    3.5665    1.2485 C   0  0  0  0  0  0  0  0  0  0  0  0
   -4.3077    3.3839    0.5246 C   0  0  0  0  0  0  0  0  0  0  0  0
   -3.6175    2.1767    0.6951 C   0  0  0  0  0  0  0  0  0  0  0  0
   -2.4662    1.7574    0.1292 N   0  0  0  0  0  0  0  0  0  0  0  0
   -1.6291    2.4987   -0.8368 C   0  0  0  0  0  0  0  0  0  0  0  0
   -0.2517    2.8399   -0.2716 C   0  0  0  0  0  0  0  0  0  0  0  0
    0.6981    2.7749   -1.4560 C   0  0  0  0  0  0  0  0  0  0  0  0
    0.0896    1.7832   -2.4389 C   0  0  0  0  0  0  0  0  0  0  0  0
   -1.4080    1.7299   -2.1452 C   0  0  0  0  0  0  0  0  0  0  0  0
    0.2829   -2.3782    0.6681 C   0  0  0  0  0  0  0  0  0  0  0  0
    0.5880   -3.6539    1.0891 C   0  0  0  0  0  0  0  0  0  0  0  0
    1.7962   -3.9282    0.6631 O   0  0  0  0  0  0  0  0  0  0  0  0
    2.2268   -2.8751    0.0029 C   0  0  0  0  0  0  0  0  0  0  0  0
    1.3227   -1.8734   -0.0206 N   0  0  0  0  0  0  0  0  0  0  0  0
    3.6000   -2.7932   -0.6145 C   0  0  0  0  0  0  0  0  0  0  0  0
    4.6203   -2.2174    0.3817 C   0  0  0  0  0  0  0  0  0  0  0  0
    4.5229   -0.6884    0.4482 C   0  0  0  0  0  0  0  0  0  0  0  0
    4.7208   -0.1205   -0.8320 O   0  0  0  0  0  0  0  0  0  0  0  0
    3.6493   -0.4745   -1.6849 C   0  0  0  0  0  0  0  0  0  0  0  0
    3.6127   -1.9925   -1.9334 C   0  0  0  0  0  0  0  0  0  0  0  0
   -0.3977    0.0355   -0.2402 H   0  0  0  0  0  0  0  0  0  0  0  0
   -5.6092    0.5789    2.9313 H   0  0  0  0  0  0  0  0  0  0  0  0
   -6.8923    2.7101    2.6675 H   0  0  0  0  0  0  0  0  0  0  0  0
   -6.0589    4.4873    1.1401 H   0  0  0  0  0  0  0  0  0  0  0  0
   -3.9559    4.1649   -0.1332 H   0  0  0  0  0  0  0  0  0  0  0  0
   -2.1140    3.4600   -1.1070 H   0  0  0  0  0  0  0  0  0  0  0  0
    0.0687    2.1173    0.5077 H   0  0  0  0  0  0  0  0  0  0  0  0
   -0.2480    3.8551    0.1822 H   0  0  0  0  0  0  0  0  0  0  0  0
    0.7611    3.7775   -1.9338 H   0  0  0  0  0  0  0  0  0  0  0  0
    1.7161    2.4585   -1.1403 H   0  0  0  0  0  0  0  0  0  0  0  0
    0.2812    2.0999   -3.4872 H   0  0  0  0  0  0  0  0  0  0  0  0
    0.5409    0.7788   -2.2881 H   0  0  0  0  0  0  0  0  0  0  0  0
   -1.7561    0.6766   -2.0844 H   0  0  0  0  0  0  0  0  0  0  0  0
   -1.9713    2.2192   -2.9704 H   0  0  0  0  0  0  0  0  0  0  0  0
   -0.0359   -4.3231    1.6666 H   0  0  0  0  0  0  0  0  0  0  0  0
    3.9071   -3.8359   -0.8518 H   0  0  0  0  0  0  0  0  0  0  0  0
    4.4680   -2.6510    1.3945 H   0  0  0  0  0  0  0  0  0  0  0  0
    5.6454   -2.4926    0.0492 H   0  0  0  0  0  0  0  0  0  0  0  0
    3.5519   -0.3681    0.8905 H   0  0  0  0  0  0  0  0  0  0  0  0
    5.3212   -0.3144    1.1233 H   0  0  0  0  0  0  0  0  0  0  0  0
    3.7982    0.0349   -2.6601 H   0  0  0  0  0  0  0  0  0  0  0  0
    2.6815   -0.1021   -1.2846 H   0  0  0  0  0  0  0  0  0  0  0  0
    4.5210   -2.2726   -2.5110 H   0  0  0  0  0  0  0  0  0  0  0  0
    2.7286   -2.2521   -2.5559 H   0  0  0  0  0  0  0  0  0  0  0  0
  1  2  2  0
  2  3  1  0
  3  4  1  0
  4  5  2  0
  5  6  1  0
  6  7  2  0
  7  8  1  0
  8  9  2  0
  9 10  1  0
 10 11  2  0
 11 12  1  0
 12 13  1  0
 13 14  1  0
 14 15  1  0
 15 16  1  0
 16 17  1  0
  2 18  1  0
 18 19  2  0
 19 20  1  0
 20 21  1  0
 21 22  2  0
 21 23  1  0
 23 24  1  0
 24 25  1  0
 25 26  1  0
 26 27  1  0
 27 28  1  0
 12  4  1  0
  6 11  1  0
 17 13  1  0
 22 18  1  0
 28 23  1  0
  3 29  1  0
  7 30  1  0
  8 31  1  0
  9 32  1  0
 10 33  1  0
 13 34  1  0
 14 35  1  0
 14 36  1  0
 15 37  1  0
 15 38  1  0
 16 39  1  0
 16 40  1  0
 17 41  1  0
 17 42  1  0
 19 43  1  0
 23 44  1  0
 24 45  1  0
 24 46  1  0
 25 47  1  0
 25 48  1  0
 27 49  1  0
 27 50  1  0
 28 51  1  0
 28 52  1  0
M  END
$$$$
