
     RDKit          3D

 47 49  0  0  0  0  0  0  0  0999 V2000
   -4.2922    1.5874   -0.9445 C   0  0  0  0  0  0  0  0  0  0  0  0
   -2.8609    1.4983   -1.3840 C   0  0  0  0  0  0  0  0  0  0  0  0
   -2.1729    2.6506   -1.7906 C   0  0  0  0  0  0  0  0  0  0  0  0
   -0.8497    2.5631   -2.2325 C   0  0  0  0  0  0  0  0  0  0  0  0
   -0.1940    1.3211   -2.2776 C   0  0  0  0  0  0  0  0  0  0  0  0
   -0.9003    0.1638   -1.9068 C   0  0  0  0  0  0  0  0  0  0  0  0
   -2.2230    0.2521   -1.4638 C   0  0  0  0  0  0  0  0  0  0  0  0
    1.2456    1.2315   -2.7412 C   0  0  0  0  0  0  0  0  0  0  0  0
    2.2961    1.4454   -1.6066 C   0  0  0  0  0  0  0  0  0  0  0  0
    2.1304    2.8552   -0.9940 C   0  0  0  0  0  0  0  0  0  0  0  0
    3.7006    1.3221   -2.2301 C   0  0  0  0  0  0  0  0  0  0  0  0
    2.1326    0.4065   -0.5696 N   0  0  0  0  0  0  0  0  0  0  0  0
    2.7889    0.4064    0.7119 C   0  0  0  0  0  0  0  0  0  0  0  0
    3.7999    1.1304    0.9139 O   0  0  0  0  0  0  0  0  0  0  0  0
    2.2983   -0.4495    1.8052 C   0  0  0  0  0  0  0  0  0  0  0  0
    1.1301   -1.1888    1.8170 C   0  0  0  0  0  0  0  0  0  0  0  0
    1.1341   -1.7727    3.0652 C   0  0  0  0  0  0  0  0  0  0  0  0
    2.2131   -1.3959    3.7107 O   0  0  0  0  0  0  0  0  0  0  0  0
    2.9372   -0.5956    2.9834 N   0  0  0  0  0  0  0  0  0  0  0  0
    0.1082   -2.6681    3.6095 C   0  0  0  0  0  0  0  0  0  0  0  0
    0.1194   -3.2401    4.8686 C   0  0  0  0  0  0  0  0  0  0  0  0
   -1.0451   -3.9768    4.9192 C   0  0  0  0  0  0  0  0  0  0  0  0
   -1.6844   -3.8430    3.7419 N   0  0  0  0  0  0  0  0  0  0  0  0
   -2.9859   -4.4053    3.4098 C   0  0  0  0  0  0  0  0  0  0  0  0
   -1.0019   -3.0398    2.9421 N   0  0  0  0  0  0  0  0  0  0  0  0
   -4.5251    0.7905   -0.2063 H   0  0  0  0  0  0  0  0  0  0  0  0
   -4.4948    2.5689   -0.4651 H   0  0  0  0  0  0  0  0  0  0  0  0
   -4.9570    1.4705   -1.8259 H   0  0  0  0  0  0  0  0  0  0  0  0
   -2.6603    3.6175   -1.7655 H   0  0  0  0  0  0  0  0  0  0  0  0
   -0.3368    3.4654   -2.5408 H   0  0  0  0  0  0  0  0  0  0  0  0
   -0.4336   -0.8108   -1.9703 H   0  0  0  0  0  0  0  0  0  0  0  0
   -2.7502   -0.6522   -1.1855 H   0  0  0  0  0  0  0  0  0  0  0  0
    1.4120    0.2376   -3.2137 H   0  0  0  0  0  0  0  0  0  0  0  0
    1.4081    1.9802   -3.5485 H   0  0  0  0  0  0  0  0  0  0  0  0
    1.2115    2.9056   -0.3727 H   0  0  0  0  0  0  0  0  0  0  0  0
    2.9910    3.1238   -0.3479 H   0  0  0  0  0  0  0  0  0  0  0  0
    2.0689    3.6248   -1.7930 H   0  0  0  0  0  0  0  0  0  0  0  0
    3.8282    2.0547   -3.0564 H   0  0  0  0  0  0  0  0  0  0  0  0
    4.4961    1.5150   -1.4815 H   0  0  0  0  0  0  0  0  0  0  0  0
    3.8525    0.2998   -2.6385 H   0  0  0  0  0  0  0  0  0  0  0  0
    1.5260   -0.4138   -0.7829 H   0  0  0  0  0  0  0  0  0  0  0  0
    0.3768   -1.2799    1.0456 H   0  0  0  0  0  0  0  0  0  0  0  0
    0.8645   -3.1274    5.6451 H   0  0  0  0  0  0  0  0  0  0  0  0
   -1.4027   -4.5598    5.7583 H   0  0  0  0  0  0  0  0  0  0  0  0
   -3.0986   -4.4779    2.3074 H   0  0  0  0  0  0  0  0  0  0  0  0
   -3.0845   -5.4222    3.8454 H   0  0  0  0  0  0  0  0  0  0  0  0
   -3.7866   -3.7527    3.8157 H   0  0  0  0  0  0  0  0  0  0  0  0
  1  2  1  0
  2  3  2  0
  3  4  1  0
  4  5  2  0
  5  6  1  0
  6  7  2  0
  5  8  1  0
  8  9  1  0
  9 10  1  0
  9 11  1  0
  9 12  1  0
 12 13  1  0
 13 14  2  0
 13 15  1  0
 15 16  1  0
 16 17  2  0
 17 18  1  0
 18 19  1  0
 17 20  1  0
 20 21  1  0
 21 22  2  0
 22 23  1  0
 23 24  1  0
 23 25  1  0
  2  7  1  0
 15 19  2  0
 20 25  2  0
  1 26  1  0
  1 27  1  0
  1 28  1  0
  3 29  1  0
  4 30  1  0
  6 31  1  0
  7 32  1  0
  8 33  1  0
  8 34  1  0
 10 35  1  0
 10 36  1  0
 10 37  1  0
 11 38  1  0
 11 39  1  0
 11 40  1  0
 12 41  1  0
 16 42  1  0
 21 43  1  0
 22 44  1  0
 24 45  1  0
 24 46  1  0
 24 47  1  0
M  END
$$$$
