
     RDKit          3D

 47 48  0  0  0  0  0  0  0  0999 V2000
   -4.2646   -0.1976   -2.1049 C   0  0  0  0  0  0  0  0  0  0  0  0
   -2.8112    0.0832   -1.8665 C   0  0  0  0  0  0  0  0  0  0  0  0
   -2.0017    0.7367   -2.7758 C   0  0  0  0  0  0  0  0  0  0  0  0
   -0.7594    0.7585   -2.1793 C   0  0  0  0  0  0  0  0  0  0  0  0
   -0.8223    0.1374   -0.9885 N   0  0  0  0  0  0  0  0  0  0  0  0
   -2.0621   -0.2910   -0.7922 N   0  0  0  0  0  0  0  0  0  0  0  0
   -2.4779   -0.9499    0.4721 C   0  0  0  0  0  0  0  0  0  0  0  0
   -1.2282   -1.4468    1.2399 C   0  0  0  0  0  0  0  0  0  0  0  0
   -3.3767   -2.1761    0.2004 C   0  0  0  0  0  0  0  0  0  0  0  0
   -3.2143    0.0666    1.3634 C   0  0  0  0  0  0  0  0  0  0  0  0
    0.4689    1.3472   -2.7517 C   0  0  0  0  0  0  0  0  0  0  0  0
    0.4426    1.7665   -3.9411 O   0  0  0  0  0  0  0  0  0  0  0  0
    1.6944    1.4309   -1.9931 N   0  0  0  0  0  0  0  0  0  0  0  0
    2.9536    1.7248   -2.6790 C   0  0  0  0  0  0  0  0  0  0  0  0
    1.6653    1.5142   -0.5581 C   0  0  0  0  0  0  0  0  0  0  0  0
    1.1336    2.6624    0.0430 C   0  0  0  0  0  0  0  0  0  0  0  0
    1.0832    2.7745    1.4299 C   0  0  0  0  0  0  0  0  0  0  0  0
    1.5753    1.7478    2.2333 C   0  0  0  0  0  0  0  0  0  0  0  0
    2.1229    0.5891    1.6586 C   0  0  0  0  0  0  0  0  0  0  0  0
    2.6287   -0.5026    2.5655 C   0  0  0  0  0  0  0  0  0  0  0  0
    2.1396    0.4492    0.2465 C   0  0  0  0  0  0  0  0  0  0  0  0
    2.6744   -0.8109   -0.3938 C   0  0  0  0  0  0  0  0  0  0  0  0
   -4.4070   -1.2738   -2.3328 H   0  0  0  0  0  0  0  0  0  0  0  0
   -4.8751    0.0981   -1.2309 H   0  0  0  0  0  0  0  0  0  0  0  0
   -4.6287    0.3863   -2.9766 H   0  0  0  0  0  0  0  0  0  0  0  0
   -2.2816    1.1440   -3.7389 H   0  0  0  0  0  0  0  0  0  0  0  0
   -0.6449   -2.1561    0.6137 H   0  0  0  0  0  0  0  0  0  0  0  0
   -0.5688   -0.5956    1.5131 H   0  0  0  0  0  0  0  0  0  0  0  0
   -1.5147   -1.9632    2.1816 H   0  0  0  0  0  0  0  0  0  0  0  0
   -2.9534   -2.7896   -0.6235 H   0  0  0  0  0  0  0  0  0  0  0  0
   -3.4585   -2.8168    1.1050 H   0  0  0  0  0  0  0  0  0  0  0  0
   -4.4122   -1.8815   -0.0577 H   0  0  0  0  0  0  0  0  0  0  0  0
   -2.5613    0.9427    1.5670 H   0  0  0  0  0  0  0  0  0  0  0  0
   -4.1384    0.4359    0.8774 H   0  0  0  0  0  0  0  0  0  0  0  0
   -3.4978   -0.3960    2.3336 H   0  0  0  0  0  0  0  0  0  0  0  0
    2.9897    2.8017   -2.9469 H   0  0  0  0  0  0  0  0  0  0  0  0
    3.8219    1.4868   -2.0277 H   0  0  0  0  0  0  0  0  0  0  0  0
    3.0385    1.1118   -3.6014 H   0  0  0  0  0  0  0  0  0  0  0  0
    0.7564    3.4708   -0.5708 H   0  0  0  0  0  0  0  0  0  0  0  0
    0.6653    3.6634    1.8846 H   0  0  0  0  0  0  0  0  0  0  0  0
    1.5283    1.8591    3.3096 H   0  0  0  0  0  0  0  0  0  0  0  0
    2.7474   -0.1422    3.6095 H   0  0  0  0  0  0  0  0  0  0  0  0
    3.6216   -0.8605    2.2213 H   0  0  0  0  0  0  0  0  0  0  0  0
    1.9098   -1.3486    2.5666 H   0  0  0  0  0  0  0  0  0  0  0  0
    2.3216   -0.9301   -1.4387 H   0  0  0  0  0  0  0  0  0  0  0  0
    3.7840   -0.7856   -0.3914 H   0  0  0  0  0  0  0  0  0  0  0  0
    2.3259   -1.7086    0.1576 H   0  0  0  0  0  0  0  0  0  0  0  0
  1  2  1  0
  2  3  2  0
  3  4  1  0
  4  5  2  0
  5  6  1  0
  6  7  1  0
  7  8  1  0
  7  9  1  0
  7 10  1  0
  4 11  1  0
 11 12  2  0
 11 13  1  0
 13 14  1  0
 13 15  1  0
 15 16  2  0
 16 17  1  0
 17 18  2  0
 18 19  1  0
 19 20  1  0
 19 21  2  0
 21 22  1  0
  6  2  1  0
 15 21  1  0
  1 23  1  0
  1 24  1  0
  1 25  1  0
  3 26  1  0
  8 27  1  0
  8 28  1  0
  8 29  1  0
  9 30  1  0
  9 31  1  0
  9 32  1  0
 10 33  1  0
 10 34  1  0
 10 35  1  0
 14 36  1  0
 14 37  1  0
 14 38  1  0
 16 39  1  0
 17 40  1  0
 18 41  1  0
 20 42  1  0
 20 43  1  0
 20 44  1  0
 22 45  1  0
 22 46  1  0
 22 47  1  0
M  END
$$$$
