
     RDKit          3D

 46 48  0  0  0  0  0  0  0  0999 V2000
   -2.3474    0.1999    5.9861 C   0  0  0  0  0  0  0  0  0  0  0  0
   -2.5880   -0.4155    4.7249 O   0  0  0  0  0  0  0  0  0  0  0  0
   -2.4771    0.2400    3.4896 C   0  0  0  0  0  0  0  0  0  0  0  0
   -2.7337   -0.4918    2.3244 C   0  0  0  0  0  0  0  0  0  0  0  0
   -2.6300    0.1131    1.0699 C   0  0  0  0  0  0  0  0  0  0  0  0
   -2.2710    1.4583    0.9679 C   0  0  0  0  0  0  0  0  0  0  0  0
   -2.0155    2.2117    2.1248 C   0  0  0  0  0  0  0  0  0  0  0  0
   -2.1148    1.5975    3.3842 C   0  0  0  0  0  0  0  0  0  0  0  0
   -1.5594    3.6454    2.0134 C   0  0  0  0  0  0  0  0  0  0  0  0
   -0.0346    3.7699    2.1381 C   0  0  0  0  0  0  0  0  0  0  0  0
    0.6690    3.0546    1.0211 C   0  0  0  0  0  0  0  0  0  0  0  0
    0.8387    3.6471   -0.0787 O   0  0  0  0  0  0  0  0  0  0  0  0
    1.0477    1.6774    1.1803 N   0  0  0  0  0  0  0  0  0  0  0  0
    1.6161    0.8780    0.1313 C   0  0  0  0  0  0  0  0  0  0  0  0
    2.6075    1.3887   -0.7228 C   0  0  0  0  0  0  0  0  0  0  0  0
    3.1570    0.5843   -1.7255 C   0  0  0  0  0  0  0  0  0  0  0  0
    2.7231   -0.7383   -1.8950 C   0  0  0  0  0  0  0  0  0  0  0  0
    1.7639   -1.2620   -1.0109 C   0  0  0  0  0  0  0  0  0  0  0  0
    1.2169   -0.4588   -0.0065 C   0  0  0  0  0  0  0  0  0  0  0  0
    3.3182   -1.5504   -2.9210 N   0  0  0  0  0  0  0  0  0  0  0  0
    2.6098   -2.5458   -3.6734 C   0  0  0  0  0  0  0  0  0  0  0  0
    1.2497   -2.6089   -3.6416 N   0  0  0  0  0  0  0  0  0  0  0  0
    0.5728   -3.5305   -4.3744 C   0  0  0  0  0  0  0  0  0  0  0  0
    1.2720   -4.4248   -5.1831 C   0  0  0  0  0  0  0  0  0  0  0  0
    2.6629   -4.3402   -5.2170 C   0  0  0  0  0  0  0  0  0  0  0  0
    3.3034   -3.4044   -4.4689 N   0  0  0  0  0  0  0  0  0  0  0  0
   -1.2986    0.5612    6.0406 H   0  0  0  0  0  0  0  0  0  0  0  0
   -2.5080   -0.5470    6.7903 H   0  0  0  0  0  0  0  0  0  0  0  0
   -3.0517    1.0447    6.1396 H   0  0  0  0  0  0  0  0  0  0  0  0
   -3.0101   -1.5364    2.3923 H   0  0  0  0  0  0  0  0  0  0  0  0
   -2.8216   -0.4639    0.1745 H   0  0  0  0  0  0  0  0  0  0  0  0
   -2.1779    1.9086   -0.0125 H   0  0  0  0  0  0  0  0  0  0  0  0
   -1.8990    2.1792    4.2706 H   0  0  0  0  0  0  0  0  0  0  0  0
   -2.0354    4.2447    2.8197 H   0  0  0  0  0  0  0  0  0  0  0  0
   -1.8923    4.0861    1.0478 H   0  0  0  0  0  0  0  0  0  0  0  0
    0.3009    3.3655    3.1177 H   0  0  0  0  0  0  0  0  0  0  0  0
    0.2425    4.8459    2.1127 H   0  0  0  0  0  0  0  0  0  0  0  0
    0.7418    1.1872    2.0515 H   0  0  0  0  0  0  0  0  0  0  0  0
    2.9759    2.3985   -0.6005 H   0  0  0  0  0  0  0  0  0  0  0  0
    3.9204    0.9932   -2.3754 H   0  0  0  0  0  0  0  0  0  0  0  0
    1.4556   -2.2968   -1.0783 H   0  0  0  0  0  0  0  0  0  0  0  0
    0.4758   -0.8766    0.6639 H   0  0  0  0  0  0  0  0  0  0  0  0
    4.3065   -1.3502   -3.1963 H   0  0  0  0  0  0  0  0  0  0  0  0
   -0.5076   -3.5661   -4.3307 H   0  0  0  0  0  0  0  0  0  0  0  0
    0.7472   -5.1641   -5.7741 H   0  0  0  0  0  0  0  0  0  0  0  0
    3.2340   -5.0161   -5.8394 H   0  0  0  0  0  0  0  0  0  0  0  0
  1  2  1  0
  2  3  1  0
  3  4  2  0
  4  5  1  0
  5  6  2  0
  6  7  1  0
  7  8  2  0
  7  9  1  0
  9 10  1  0
 10 11  1  0
 11 12  2  0
 11 13  1  0
 13 14  1  0
 14 15  2  0
 15 16  1  0
 16 17  2  0
 17 18  1  0
 18 19  2  0
 17 20  1  0
 20 21  1  0
 21 22  2  0
 22 23  1  0
 23 24  2  0
 24 25  1  0
 25 26  2  0
  3  8  1  0
 14 19  1  0
 21 26  1  0
  1 27  1  0
  1 28  1  0
  1 29  1  0
  4 30  1  0
  5 31  1  0
  6 32  1  0
  8 33  1  0
  9 34  1  0
  9 35  1  0
 10 36  1  0
 10 37  1  0
 13 38  1  0
 15 39  1  0
 16 40  1  0
 18 41  1  0
 19 42  1  0
 20 43  1  0
 23 44  1  0
 24 45  1  0
 25 46  1  0
M  END
$$$$
