
     RDKit          3D

 55 58  0  0  0  0  0  0  0  0999 V2000
   -1.0798   -1.6150   -5.1605 C   0  0  0  0  0  0  0  0  0  0  0  0
   -1.8188   -0.3256   -5.4982 C   0  0  0  0  0  0  0  0  0  0  0  0
   -1.3019    0.8082   -4.6715 C   0  0  0  0  0  0  0  0  0  0  0  0
   -0.3296    1.6465   -5.0786 N   0  0  0  0  0  0  0  0  0  0  0  0
   -0.1312    2.4376   -4.0689 O   0  0  0  0  0  0  0  0  0  0  0  0
   -0.9287    2.1062   -3.0815 C   0  0  0  0  0  0  0  0  0  0  0  0
   -1.7067    1.0548   -3.4088 N   0  0  0  0  0  0  0  0  0  0  0  0
   -0.9604    2.7885   -1.7724 C   0  0  0  0  0  0  0  0  0  0  0  0
   -0.0917    3.8555   -1.5140 C   0  0  0  0  0  0  0  0  0  0  0  0
   -0.1046    4.4907   -0.2725 C   0  0  0  0  0  0  0  0  0  0  0  0
   -0.9790    4.0662    0.7411 C   0  0  0  0  0  0  0  0  0  0  0  0
   -0.9398    4.7556    2.0787 C   0  0  0  0  0  0  0  0  0  0  0  0
   -1.8679    2.9922    0.4919 C   0  0  0  0  0  0  0  0  0  0  0  0
   -1.8513    2.3711   -0.7723 C   0  0  0  0  0  0  0  0  0  0  0  0
   -2.7731    2.5331    1.5199 N   0  0  0  0  0  0  0  0  0  0  0  0
   -3.3091    1.1714    1.5852 C   0  0  0  0  0  0  0  0  0  0  0  0
   -2.1910    0.1639    1.6518 C   0  0  0  0  0  0  0  0  0  0  0  0
   -1.2681    0.2083    2.7075 C   0  0  0  0  0  0  0  0  0  0  0  0
   -0.2064   -0.6992    2.7558 C   0  0  0  0  0  0  0  0  0  0  0  0
   -0.0474   -1.6592    1.7443 C   0  0  0  0  0  0  0  0  0  0  0  0
   -0.9904   -1.7256    0.7070 C   0  0  0  0  0  0  0  0  0  0  0  0
   -2.0522   -0.8181    0.6583 C   0  0  0  0  0  0  0  0  0  0  0  0
    1.0741   -2.6194    1.7844 C   0  0  0  0  0  0  0  0  0  0  0  0
    0.8463   -3.8331    1.5279 O   0  0  0  0  0  0  0  0  0  0  0  0
    2.4173   -2.1988    2.0861 N   0  0  0  0  0  0  0  0  0  0  0  0
    3.4857   -3.1422    2.3677 C   0  0  0  0  0  0  0  0  0  0  0  0
    4.7415   -2.2990    2.5404 C   0  0  0  0  0  0  0  0  0  0  0  0
    4.4292   -0.9582    1.8835 C   0  0  0  0  0  0  0  0  0  0  0  0
    2.9106   -0.8450    1.8816 C   0  0  0  0  0  0  0  0  0  0  0  0
   -1.4773   -2.4449   -5.7820 H   0  0  0  0  0  0  0  0  0  0  0  0
   -1.2230   -1.8731   -4.0891 H   0  0  0  0  0  0  0  0  0  0  0  0
    0.0060   -1.5026   -5.3686 H   0  0  0  0  0  0  0  0  0  0  0  0
   -2.9044   -0.4594   -5.3042 H   0  0  0  0  0  0  0  0  0  0  0  0
   -1.6834   -0.0934   -6.5762 H   0  0  0  0  0  0  0  0  0  0  0  0
    0.6023    4.1977   -2.2719 H   0  0  0  0  0  0  0  0  0  0  0  0
    0.5806    5.3116   -0.0998 H   0  0  0  0  0  0  0  0  0  0  0  0
   -0.1062    5.4876    2.1394 H   0  0  0  0  0  0  0  0  0  0  0  0
   -0.7916    4.0067    2.8857 H   0  0  0  0  0  0  0  0  0  0  0  0
   -1.8920    5.3013    2.2472 H   0  0  0  0  0  0  0  0  0  0  0  0
   -2.5370    1.5639   -0.9856 H   0  0  0  0  0  0  0  0  0  0  0  0
   -3.0130    3.1665    2.3145 H   0  0  0  0  0  0  0  0  0  0  0  0
   -3.9342    1.0652    2.4982 H   0  0  0  0  0  0  0  0  0  0  0  0
   -3.9779    0.9892    0.7172 H   0  0  0  0  0  0  0  0  0  0  0  0
   -1.3695    0.9491    3.4911 H   0  0  0  0  0  0  0  0  0  0  0  0
    0.4771   -0.6638    3.5941 H   0  0  0  0  0  0  0  0  0  0  0  0
   -0.8940   -2.4684   -0.0755 H   0  0  0  0  0  0  0  0  0  0  0  0
   -2.7587   -0.8767   -0.1600 H   0  0  0  0  0  0  0  0  0  0  0  0
    3.2625   -3.7139    3.2946 H   0  0  0  0  0  0  0  0  0  0  0  0
    3.6061   -3.8402    1.5104 H   0  0  0  0  0  0  0  0  0  0  0  0
    4.9394   -2.1433    3.6239 H   0  0  0  0  0  0  0  0  0  0  0  0
    5.6253   -2.7843    2.0721 H   0  0  0  0  0  0  0  0  0  0  0  0
    4.8998   -0.1165    2.4366 H   0  0  0  0  0  0  0  0  0  0  0  0
    4.8038   -0.9632    0.8360 H   0  0  0  0  0  0  0  0  0  0  0  0
    2.5508   -0.4385    0.9110 H   0  0  0  0  0  0  0  0  0  0  0  0
    2.5809   -0.1897    2.7145 H   0  0  0  0  0  0  0  0  0  0  0  0
  1  2  1  0
  2  3  1  0
  3  4  2  0
  4  5  1  0
  5  6  1  0
  6  7  2  0
  6  8  1  0
  8  9  2  0
  9 10  1  0
 10 11  2  0
 11 12  1  0
 11 13  1  0
 13 14  2  0
 13 15  1  0
 15 16  1  0
 16 17  1  0
 17 18  2  0
 18 19  1  0
 19 20  2  0
 20 21  1  0
 21 22  2  0
 20 23  1  0
 23 24  2  0
 23 25  1  0
 25 26  1  0
 26 27  1  0
 27 28  1  0
 28 29  1  0
  7  3  1  0
  8 14  1  0
 17 22  1  0
 29 25  1  0
  1 30  1  0
  1 31  1  0
  1 32  1  0
  2 33  1  0
  2 34  1  0
  9 35  1  0
 10 36  1  0
 12 37  1  0
 12 38  1  0
 12 39  1  0
 14 40  1  0
 15 41  1  0
 16 42  1  0
 16 43  1  0
 18 44  1  0
 19 45  1  0
 21 46  1  0
 22 47  1  0
 26 48  1  0
 26 49  1  0
 27 50  1  0
 27 51  1  0
 28 52  1  0
 28 53  1  0
 29 54  1  0
 29 55  1  0
M  END
$$$$
