
     RDKit          3D

 55 58  0  0  0  0  0  0  0  0999 V2000
   -4.6367   -0.2048    2.8836 C   0  0  0  0  0  0  0  0  0  0  0  0
   -4.0031    0.6982    3.9366 C   0  0  0  0  0  0  0  0  0  0  0  0
   -2.9543    1.5692    3.3199 C   0  0  0  0  0  0  0  0  0  0  0  0
   -3.2048    2.7872    2.8029 N   0  0  0  0  0  0  0  0  0  0  0  0
   -2.0671    3.1813    2.3173 O   0  0  0  0  0  0  0  0  0  0  0  0
   -1.1577    2.2566    2.5110 C   0  0  0  0  0  0  0  0  0  0  0  0
   -1.6727    1.1860    3.1492 N   0  0  0  0  0  0  0  0  0  0  0  0
    0.2474    2.3671    2.0715 C   0  0  0  0  0  0  0  0  0  0  0  0
    0.6829    3.5088    1.3899 C   0  0  0  0  0  0  0  0  0  0  0  0
    2.0034    3.6080    0.9540 C   0  0  0  0  0  0  0  0  0  0  0  0
    2.9141    2.5629    1.1780 C   0  0  0  0  0  0  0  0  0  0  0  0
    4.3215    2.6959    0.6623 C   0  0  0  0  0  0  0  0  0  0  0  0
    2.4871    1.4002    1.8653 C   0  0  0  0  0  0  0  0  0  0  0  0
    1.1554    1.3265    2.3185 C   0  0  0  0  0  0  0  0  0  0  0  0
    3.3962    0.2978    2.0844 N   0  0  0  0  0  0  0  0  0  0  0  0
    2.9650   -1.0830    2.3189 C   0  0  0  0  0  0  0  0  0  0  0  0
    2.0905   -1.5689    1.1913 C   0  0  0  0  0  0  0  0  0  0  0  0
    2.5536   -1.5164   -0.1331 C   0  0  0  0  0  0  0  0  0  0  0  0
    1.7264   -1.9166   -1.1854 C   0  0  0  0  0  0  0  0  0  0  0  0
    0.4248   -2.3763   -0.9287 C   0  0  0  0  0  0  0  0  0  0  0  0
   -0.0223   -2.4715    0.3984 C   0  0  0  0  0  0  0  0  0  0  0  0
    0.8030   -2.0673    1.4510 C   0  0  0  0  0  0  0  0  0  0  0  0
   -0.4623   -2.7828   -2.0357 C   0  0  0  0  0  0  0  0  0  0  0  0
   -1.1021   -3.8665   -1.9378 O   0  0  0  0  0  0  0  0  0  0  0  0
   -0.6328   -1.9590   -3.2042 N   0  0  0  0  0  0  0  0  0  0  0  0
   -1.3357   -2.4204   -4.3892 C   0  0  0  0  0  0  0  0  0  0  0  0
   -1.3674   -1.2280   -5.3386 C   0  0  0  0  0  0  0  0  0  0  0  0
   -1.0795   -0.0016   -4.4751 C   0  0  0  0  0  0  0  0  0  0  0  0
   -0.3605   -0.5283   -3.2390 C   0  0  0  0  0  0  0  0  0  0  0  0
   -5.4072   -0.8480    3.3608 H   0  0  0  0  0  0  0  0  0  0  0  0
   -5.1230    0.4065    2.0920 H   0  0  0  0  0  0  0  0  0  0  0  0
   -3.8649   -0.8571    2.4205 H   0  0  0  0  0  0  0  0  0  0  0  0
   -4.7883    1.3323    4.4016 H   0  0  0  0  0  0  0  0  0  0  0  0
   -3.5438    0.0725    4.7326 H   0  0  0  0  0  0  0  0  0  0  0  0
    0.0005    4.3257    1.1905 H   0  0  0  0  0  0  0  0  0  0  0  0
    2.3114    4.5025    0.4288 H   0  0  0  0  0  0  0  0  0  0  0  0
    5.0337    2.7033    1.5143 H   0  0  0  0  0  0  0  0  0  0  0  0
    4.4628    3.6380    0.0894 H   0  0  0  0  0  0  0  0  0  0  0  0
    4.5573    1.8467   -0.0137 H   0  0  0  0  0  0  0  0  0  0  0  0
    0.8194    0.4579    2.8674 H   0  0  0  0  0  0  0  0  0  0  0  0
    4.4255    0.4526    1.9997 H   0  0  0  0  0  0  0  0  0  0  0  0
    2.4460   -1.1481    3.2990 H   0  0  0  0  0  0  0  0  0  0  0  0
    3.8576   -1.7427    2.3816 H   0  0  0  0  0  0  0  0  0  0  0  0
    3.5513   -1.1530   -0.3497 H   0  0  0  0  0  0  0  0  0  0  0  0
    2.1091   -1.8819   -2.1977 H   0  0  0  0  0  0  0  0  0  0  0  0
   -1.0187   -2.8370    0.6172 H   0  0  0  0  0  0  0  0  0  0  0  0
    0.4297   -2.1278    2.4663 H   0  0  0  0  0  0  0  0  0  0  0  0
   -0.7955   -3.2783   -4.8492 H   0  0  0  0  0  0  0  0  0  0  0  0
   -2.3713   -2.7248   -4.1165 H   0  0  0  0  0  0  0  0  0  0  0  0
   -0.5661   -1.3391   -6.1046 H   0  0  0  0  0  0  0  0  0  0  0  0
   -2.3523   -1.1412   -5.8476 H   0  0  0  0  0  0  0  0  0  0  0  0
   -0.4575    0.7430   -5.0227 H   0  0  0  0  0  0  0  0  0  0  0  0
   -2.0412    0.4749   -4.1734 H   0  0  0  0  0  0  0  0  0  0  0  0
   -0.7498   -0.0327   -2.3212 H   0  0  0  0  0  0  0  0  0  0  0  0
    0.7328   -0.3519   -3.3337 H   0  0  0  0  0  0  0  0  0  0  0  0
  1  2  1  0
  2  3  1  0
  3  4  2  0
  4  5  1  0
  5  6  1  0
  6  7  2  0
  6  8  1  0
  8  9  2  0
  9 10  1  0
 10 11  2  0
 11 12  1  0
 11 13  1  0
 13 14  2  0
 13 15  1  0
 15 16  1  0
 16 17  1  0
 17 18  2  0
 18 19  1  0
 19 20  2  0
 20 21  1  0
 21 22  2  0
 20 23  1  0
 23 24  2  0
 23 25  1  0
 25 26  1  0
 26 27  1  0
 27 28  1  0
 28 29  1  0
  7  3  1  0
  8 14  1  0
 17 22  1  0
 29 25  1  0
  1 30  1  0
  1 31  1  0
  1 32  1  0
  2 33  1  0
  2 34  1  0
  9 35  1  0
 10 36  1  0
 12 37  1  0
 12 38  1  0
 12 39  1  0
 14 40  1  0
 15 41  1  0
 16 42  1  0
 16 43  1  0
 18 44  1  0
 19 45  1  0
 21 46  1  0
 22 47  1  0
 26 48  1  0
 26 49  1  0
 27 50  1  0
 27 51  1  0
 28 52  1  0
 28 53  1  0
 29 54  1  0
 29 55  1  0
M  END
$$$$
