
     RDKit          3D

 36 38  0  0  0  0  0  0  0  0999 V2000
   -0.8778    1.6866    0.0468 O   0  0  0  0  0  0  0  0  0  0  0  0
   -0.9611    0.9792    1.0856 C   0  0  0  0  0  0  0  0  0  0  0  0
   -1.4265   -0.3787    0.9919 N   0  0  0  0  0  0  0  0  0  0  0  0
   -1.5482   -1.0987   -0.2471 C   0  0  0  0  0  0  0  0  0  0  0  0
   -2.5686   -2.0502   -0.3915 C   0  0  0  0  0  0  0  0  0  0  0  0
   -2.6905   -2.7834   -1.5742 C   0  0  0  0  0  0  0  0  0  0  0  0
   -1.7876   -2.5825   -2.6204 C   0  0  0  0  0  0  0  0  0  0  0  0
   -0.7523   -1.6443   -2.4901 C   0  0  0  0  0  0  0  0  0  0  0  0
   -0.6267   -0.9167   -1.2949 C   0  0  0  0  0  0  0  0  0  0  0  0
    0.2515   -1.4653   -3.5996 C   0  0  0  0  0  0  0  0  0  0  0  0
    1.3848   -2.4858   -3.4934 C   0  0  0  0  0  0  0  0  0  0  0  0
    2.1169   -2.2725   -2.3181 O   0  0  0  0  0  0  0  0  0  0  0  0
   -0.6373    1.5742    2.4002 C   0  0  0  0  0  0  0  0  0  0  0  0
   -1.1358    1.1586    3.6378 C   0  0  0  0  0  0  0  0  0  0  0  0
   -0.6672    1.9455    4.6318 N   0  0  0  0  0  0  0  0  0  0  0  0
    0.1235    2.8493    4.0362 C   0  0  0  0  0  0  0  0  0  0  0  0
    0.8134    3.8326    4.6627 N   0  0  0  0  0  0  0  0  0  0  0  0
    1.5923    4.6627    3.9101 C   0  0  0  0  0  0  0  0  0  0  0  0
    1.6801    4.4910    2.5551 N   0  0  0  0  0  0  0  0  0  0  0  0
    0.9918    3.5006    1.9144 C   0  0  0  0  0  0  0  0  0  0  0  0
    1.1259    3.3351    0.5409 O   0  0  0  0  0  0  0  0  0  0  0  0
    0.1773    2.6656    2.6830 C   0  0  0  0  0  0  0  0  0  0  0  0
   -1.7583   -0.8571    1.8583 H   0  0  0  0  0  0  0  0  0  0  0  0
   -3.2742   -2.2181    0.4125 H   0  0  0  0  0  0  0  0  0  0  0  0
   -3.4839   -3.5122   -1.6783 H   0  0  0  0  0  0  0  0  0  0  0  0
   -1.8887   -3.1646   -3.5281 H   0  0  0  0  0  0  0  0  0  0  0  0
    0.2039   -0.2328   -1.1758 H   0  0  0  0  0  0  0  0  0  0  0  0
    0.6750   -0.4372   -3.5762 H   0  0  0  0  0  0  0  0  0  0  0  0
   -0.2537   -1.5858   -4.5828 H   0  0  0  0  0  0  0  0  0  0  0  0
    2.0548   -2.3704   -4.3743 H   0  0  0  0  0  0  0  0  0  0  0  0
    0.9654   -3.5173   -3.5007 H   0  0  0  0  0  0  0  0  0  0  0  0
    2.8251   -2.9675   -2.3055 H   0  0  0  0  0  0  0  0  0  0  0  0
   -1.8234    0.3411    3.8062 H   0  0  0  0  0  0  0  0  0  0  0  0
   -0.8804    1.8656    5.6508 H   0  0  0  0  0  0  0  0  0  0  0  0
    2.1501    5.4559    4.3883 H   0  0  0  0  0  0  0  0  0  0  0  0
    1.7257    3.9461   -0.0002 H   0  0  0  0  0  0  0  0  0  0  0  0
  1  2  2  0
  2  3  1  0
  3  4  1  0
  4  5  2  0
  5  6  1  0
  6  7  2  0
  7  8  1  0
  8  9  2  0
  8 10  1  0
 10 11  1  0
 11 12  1  0
  2 13  1  0
 13 14  2  0
 14 15  1  0
 15 16  1  0
 16 17  2  0
 17 18  1  0
 18 19  2  0
 19 20  1  0
 20 21  1  0
 20 22  2  0
  4  9  1  0
 22 13  1  0
 16 22  1  0
  3 23  1  0
  5 24  1  0
  6 25  1  0
  7 26  1  0
  9 27  1  0
 10 28  1  0
 10 29  1  0
 11 30  1  0
 11 31  1  0
 12 32  1  0
 14 33  1  0
 15 34  1  0
 18 35  1  0
 21 36  1  0
M  END
$$$$
