
     RDKit          3D

 38 40  0  0  0  0  0  0  0  0999 V2000
   -4.9472    3.1499   -1.0232 N   0  0  0  0  0  0  0  0  0  0  0  0
   -4.2973    2.2053   -0.8666 C   0  0  0  0  0  0  0  0  0  0  0  0
   -3.4900    1.0322   -0.6719 C   0  0  0  0  0  0  0  0  0  0  0  0
   -2.1047    1.0910   -0.8418 C   0  0  0  0  0  0  0  0  0  0  0  0
   -1.3530   -0.0750   -0.6389 C   0  0  0  0  0  0  0  0  0  0  0  0
   -1.9946   -1.2284   -0.3042 N   0  0  0  0  0  0  0  0  0  0  0  0
   -3.3428   -1.2661   -0.1464 C   0  0  0  0  0  0  0  0  0  0  0  0
   -4.0808   -0.1409   -0.3275 N   0  0  0  0  0  0  0  0  0  0  0  0
    0.0803   -0.0707   -0.7916 N   0  0  0  0  0  0  0  0  0  0  0  0
    0.8869    0.9652   -0.1181 C   0  0  0  0  0  0  0  0  0  0  0  0
    1.5590    0.4356    1.1585 C   0  0  0  0  0  0  0  0  0  0  0  0
    0.5489   -0.1587    2.1593 C   0  0  1  0  0  0  0  0  0  0  0  0
    1.1651   -0.4957    3.5166 C   0  0  0  0  0  0  0  0  0  0  0  0
    0.2464    0.5202    4.1822 C   0  0  2  0  0  0  0  0  0  0  0  0
   -0.6746   -0.0846    5.0215 F   0  0  0  0  0  0  0  0  0  0  0  0
   -0.3596    0.8722    2.8305 C   0  0  0  0  0  0  0  0  0  0  0  0
    0.7355   -1.2435   -1.3920 C   0  0  0  0  0  0  0  0  0  0  0  0
    1.7491   -0.8274   -2.4102 C   0  0  0  0  0  0  0  0  0  0  0  0
    1.5098   -0.2323   -3.6403 C   0  0  0  0  0  0  0  0  0  0  0  0
    2.6939    0.0899   -4.3352 C   0  0  0  0  0  0  0  0  0  0  0  0
    3.8603   -0.2136   -3.7076 N   0  0  0  0  0  0  0  0  0  0  0  0
    3.4063   -0.8953   -2.2616 S   0  0  0  0  0  0  0  0  0  0  0  0
   -1.6288    2.0160   -1.1435 H   0  0  0  0  0  0  0  0  0  0  0  0
   -3.8289   -2.1932    0.1241 H   0  0  0  0  0  0  0  0  0  0  0  0
    1.6711    1.3382   -0.8101 H   0  0  0  0  0  0  0  0  0  0  0  0
    0.2675    1.8470    0.1457 H   0  0  0  0  0  0  0  0  0  0  0  0
    2.1194    1.2714    1.6331 H   0  0  0  0  0  0  0  0  0  0  0  0
    2.3027   -0.3440    0.8892 H   0  0  0  0  0  0  0  0  0  0  0  0
   -0.0171   -1.0235    1.7487 H   0  0  0  0  0  0  0  0  0  0  0  0
    0.9516   -1.5410    3.8308 H   0  0  0  0  0  0  0  0  0  0  0  0
    2.2378   -0.2163    3.6117 H   0  0  0  0  0  0  0  0  0  0  0  0
    0.7896    1.3647    4.6594 H   0  0  0  0  0  0  0  0  0  0  0  0
   -1.4351    0.6001    2.7520 H   0  0  0  0  0  0  0  0  0  0  0  0
   -0.1465    1.9251    2.5435 H   0  0  0  0  0  0  0  0  0  0  0  0
    1.2161   -1.8556   -0.6005 H   0  0  0  0  0  0  0  0  0  0  0  0
   -0.0098   -1.8899   -1.9044 H   0  0  0  0  0  0  0  0  0  0  0  0
    0.5187   -0.0285   -4.0239 H   0  0  0  0  0  0  0  0  0  0  0  0
    2.6818    0.5578   -5.3102 H   0  0  0  0  0  0  0  0  0  0  0  0
  1  2  3  0
  2  3  1  0
  3  4  2  0
  4  5  1  0
  5  6  2  0
  6  7  1  0
  7  8  2  0
  5  9  1  0
  9 10  1  0
 10 11  1  0
 11 12  1  0
 12 13  1  0
 13 14  1  0
 14 15  1  0
 14 16  1  0
  9 17  1  0
 17 18  1  0
 18 19  2  0
 19 20  1  0
 20 21  2  0
 21 22  1  0
  3  8  1  0
 16 12  1  0
 22 18  1  0
  4 23  1  0
  7 24  1  0
 10 25  1  0
 10 26  1  0
 11 27  1  0
 11 28  1  0
 12 29  1  6
 13 30  1  0
 13 31  1  0
 14 32  1  1
 16 33  1  0
 16 34  1  0
 17 35  1  0
 17 36  1  0
 19 37  1  0
 20 38  1  0
M  END
$$$$
