
     RDKit          3D

 44 46  0  0  0  0  0  0  0  0999 V2000
    0.7233    0.1975   -2.8714 C   0  0  0  0  0  0  0  0  0  0  0  0
   -0.4558    0.8083   -3.3831 O   0  0  0  0  0  0  0  0  0  0  0  0
   -0.9732    1.9977   -2.8632 C   0  0  0  0  0  0  0  0  0  0  0  0
   -2.1547    2.5244   -3.3841 C   0  0  0  0  0  0  0  0  0  0  0  0
   -2.6525    3.7076   -2.8405 C   0  0  0  0  0  0  0  0  0  0  0  0
   -1.9923    4.3175   -1.8221 N   0  0  0  0  0  0  0  0  0  0  0  0
   -0.8396    3.7963   -1.3162 C   0  0  0  0  0  0  0  0  0  0  0  0
   -0.3403    2.6475   -1.8501 N   0  0  0  0  0  0  0  0  0  0  0  0
   -0.1475    4.4611   -0.2361 N   0  0  0  0  0  0  0  0  0  0  0  0
   -0.5537    5.8116    0.1594 C   0  0  0  0  0  0  0  0  0  0  0  0
    1.0848    3.9278    0.2903 C   0  0  0  0  0  0  0  0  0  0  0  0
    2.0687    4.6987    0.4607 O   0  0  0  0  0  0  0  0  0  0  0  0
    1.2219    2.4933    0.6368 C   0  0  0  0  0  0  0  0  0  0  0  0
    2.4759    1.8649    0.5657 C   0  0  0  0  0  0  0  0  0  0  0  0
    2.5989    0.4989    0.8360 C   0  0  0  0  0  0  0  0  0  0  0  0
    1.4758   -0.2612    1.1785 C   0  0  0  0  0  0  0  0  0  0  0  0
    0.2277    0.3750    1.3032 C   0  0  0  0  0  0  0  0  0  0  0  0
    0.1026    1.7408    1.0331 C   0  0  0  0  0  0  0  0  0  0  0  0
    1.6437   -1.6316    1.4257 O   0  0  0  0  0  0  0  0  0  0  0  0
    0.6847   -2.6203    1.1716 C   0  0  0  0  0  0  0  0  0  0  0  0
    0.8443   -3.8855    1.7398 C   0  0  0  0  0  0  0  0  0  0  0  0
   -0.0931   -4.8839    1.4705 C   0  0  0  0  0  0  0  0  0  0  0  0
   -1.1928   -4.6151    0.6411 C   0  0  0  0  0  0  0  0  0  0  0  0
   -1.3013   -3.3361    0.0698 C   0  0  0  0  0  0  0  0  0  0  0  0
   -0.3727   -2.3825    0.3461 N   0  0  0  0  0  0  0  0  0  0  0  0
   -2.1789   -5.7089    0.3183 C   0  0  0  0  0  0  0  0  0  0  0  0
   -1.6108   -6.5798   -0.5921 F   0  0  0  0  0  0  0  0  0  0  0  0
   -2.5038   -6.4069    1.4681 F   0  0  0  0  0  0  0  0  0  0  0  0
   -3.3442   -5.1928   -0.2213 F   0  0  0  0  0  0  0  0  0  0  0  0
    0.5740   -0.0814   -1.8069 H   0  0  0  0  0  0  0  0  0  0  0  0
    1.5836    0.8948   -2.9579 H   0  0  0  0  0  0  0  0  0  0  0  0
    0.9430   -0.7202   -3.4557 H   0  0  0  0  0  0  0  0  0  0  0  0
   -2.6752    2.0264   -4.1918 H   0  0  0  0  0  0  0  0  0  0  0  0
   -3.5652    4.1407   -3.2262 H   0  0  0  0  0  0  0  0  0  0  0  0
   -0.1263    6.0770    1.1503 H   0  0  0  0  0  0  0  0  0  0  0  0
   -0.2006    6.5437   -0.5964 H   0  0  0  0  0  0  0  0  0  0  0  0
   -1.6591    5.8741    0.2470 H   0  0  0  0  0  0  0  0  0  0  0  0
    3.3566    2.4242    0.2747 H   0  0  0  0  0  0  0  0  0  0  0  0
    3.5692    0.0238    0.7603 H   0  0  0  0  0  0  0  0  0  0  0  0
   -0.6446   -0.1751    1.6276 H   0  0  0  0  0  0  0  0  0  0  0  0
   -0.8695    2.2096    1.1315 H   0  0  0  0  0  0  0  0  0  0  0  0
    1.6924   -4.0958    2.3801 H   0  0  0  0  0  0  0  0  0  0  0  0
    0.0422   -5.8677    1.9032 H   0  0  0  0  0  0  0  0  0  0  0  0
   -2.1163   -3.0942   -0.5989 H   0  0  0  0  0  0  0  0  0  0  0  0
  1  2  1  0
  2  3  1  0
  3  4  2  0
  4  5  1  0
  5  6  2  0
  6  7  1  0
  7  8  2  0
  7  9  1  0
  9 10  1  0
  9 11  1  0
 11 12  2  0
 11 13  1  0
 13 14  2  0
 14 15  1  0
 15 16  2  0
 16 17  1  0
 17 18  2  0
 16 19  1  0
 19 20  1  0
 20 21  2  0
 21 22  1  0
 22 23  2  0
 23 24  1  0
 24 25  2  0
 23 26  1  0
 26 27  1  0
 26 28  1  0
 26 29  1  0
  3  8  1  0
 13 18  1  0
 20 25  1  0
  1 30  1  0
  1 31  1  0
  1 32  1  0
  4 33  1  0
  5 34  1  0
 10 35  1  0
 10 36  1  0
 10 37  1  0
 14 38  1  0
 15 39  1  0
 17 40  1  0
 18 41  1  0
 21 42  1  0
 22 43  1  0
 24 44  1  0
M  END
$$$$
