
     RDKit          3D

 55 58  0  0  0  0  0  0  0  0999 V2000
    0.9120    2.1513   -3.2218 O   0  0  0  0  0  0  0  0  0  0  0  0
    1.0201    1.7159   -2.0433 C   0  0  0  0  0  0  0  0  0  0  0  0
    1.0386    2.6473   -0.9502 N   0  0  0  0  0  0  0  0  0  0  0  0
    0.9942    4.0978   -1.1709 C   0  0  0  0  0  0  0  0  0  0  0  0
   -0.4446    4.5934   -1.1167 C   0  0  0  0  0  0  0  0  0  0  0  0
   -0.7228    4.8879    0.3627 C   0  0  0  0  0  0  0  0  0  0  0  0
   -1.5095    6.1788    0.5818 C   0  0  0  0  0  0  0  0  0  0  0  0
   -0.5413    7.2417    0.8507 N   0  0  0  0  0  0  0  0  0  0  0  0
    0.5973    6.5835    1.4976 C   0  0  0  0  0  0  0  0  0  0  0  0
    0.6290    5.1246    1.0239 C   0  0  0  0  0  0  0  0  0  0  0  0
    1.7027    4.8400   -0.0408 C   0  0  0  0  0  0  0  0  0  0  0  0
    1.1052    0.2496   -1.8180 C   0  0  0  0  0  0  0  0  0  0  0  0
    0.7327   -0.6367   -2.8434 C   0  0  0  0  0  0  0  0  0  0  0  0
    0.8136   -2.0178   -2.6539 C   0  0  0  0  0  0  0  0  0  0  0  0
    1.2558   -2.5475   -1.4395 C   0  0  0  0  0  0  0  0  0  0  0  0
    1.6548   -1.6671   -0.4161 C   0  0  0  0  0  0  0  0  0  0  0  0
    1.5822   -0.2836   -0.6061 C   0  0  0  0  0  0  0  0  0  0  0  0
    1.3001   -3.9454   -1.3130 O   0  0  0  0  0  0  0  0  0  0  0  0
    1.3498   -4.6880   -0.0920 C   0  0  0  0  0  0  0  0  0  0  0  0
   -0.0714   -4.9171    0.4687 C   0  0  0  0  0  0  0  0  0  0  0  0
   -0.0734   -6.0296    1.5339 C   0  0  0  0  0  0  0  0  0  0  0  0
   -1.5085   -6.3860    1.9864 C   0  0  0  0  0  0  0  0  0  0  0  0
   -2.5041   -5.2211    1.8458 C   0  0  0  0  0  0  0  0  0  0  0  0
   -1.8206   -3.8683    2.0657 C   0  0  0  0  0  0  0  0  0  0  0  0
   -0.6880   -3.6166    1.0472 C   0  0  0  0  0  0  0  0  0  0  0  0
    0.8637    2.2975    0.0191 H   0  0  0  0  0  0  0  0  0  0  0  0
    1.4672    4.3564   -2.1471 H   0  0  0  0  0  0  0  0  0  0  0  0
   -0.5226    5.5183   -1.7322 H   0  0  0  0  0  0  0  0  0  0  0  0
   -1.1600    3.8420   -1.5188 H   0  0  0  0  0  0  0  0  0  0  0  0
   -1.2458    4.0208    0.8302 H   0  0  0  0  0  0  0  0  0  0  0  0
   -2.1667    6.0632    1.4722 H   0  0  0  0  0  0  0  0  0  0  0  0
   -2.1601    6.4386   -0.2867 H   0  0  0  0  0  0  0  0  0  0  0  0
   -0.2085    7.6144   -0.0740 H   0  0  0  0  0  0  0  0  0  0  0  0
    0.4452    6.6044    2.5980 H   0  0  0  0  0  0  0  0  0  0  0  0
    1.5408    7.1342    1.2882 H   0  0  0  0  0  0  0  0  0  0  0  0
    0.7650    4.4391    1.8944 H   0  0  0  0  0  0  0  0  0  0  0  0
    2.5404    4.2426    0.3844 H   0  0  0  0  0  0  0  0  0  0  0  0
    2.1274    5.7825   -0.4552 H   0  0  0  0  0  0  0  0  0  0  0  0
    0.3658   -0.2642   -3.7905 H   0  0  0  0  0  0  0  0  0  0  0  0
    0.5157   -2.6831   -3.4523 H   0  0  0  0  0  0  0  0  0  0  0  0
    2.0425   -2.0326    0.5234 H   0  0  0  0  0  0  0  0  0  0  0  0
    1.9274    0.3583    0.1914 H   0  0  0  0  0  0  0  0  0  0  0  0
    1.7962   -5.6768   -0.3380 H   0  0  0  0  0  0  0  0  0  0  0  0
    2.0240   -4.2221    0.6574 H   0  0  0  0  0  0  0  0  0  0  0  0
   -0.7094   -5.2641   -0.3769 H   0  0  0  0  0  0  0  0  0  0  0  0
    0.5188   -5.6923    2.4161 H   0  0  0  0  0  0  0  0  0  0  0  0
    0.4112   -6.9492    1.1333 H   0  0  0  0  0  0  0  0  0  0  0  0
   -1.4779   -6.7177    3.0466 H   0  0  0  0  0  0  0  0  0  0  0  0
   -1.8831   -7.2433    1.3837 H   0  0  0  0  0  0  0  0  0  0  0  0
   -3.3289   -5.3490    2.5776 H   0  0  0  0  0  0  0  0  0  0  0  0
   -2.9516   -5.2375    0.8302 H   0  0  0  0  0  0  0  0  0  0  0  0
   -1.4036   -3.8428    3.0960 H   0  0  0  0  0  0  0  0  0  0  0  0
   -2.5737   -3.0564    1.9921 H   0  0  0  0  0  0  0  0  0  0  0  0
   -1.0871   -3.0072    0.2087 H   0  0  0  0  0  0  0  0  0  0  0  0
    0.0936   -3.0147    1.5590 H   0  0  0  0  0  0  0  0  0  0  0  0
  1  2  2  0
  2  3  1  0
  3  4  1  0
  4  5  1  0
  5  6  1  0
  6  7  1  0
  7  8  1  0
  8  9  1  0
  9 10  1  0
 10 11  1  0
  2 12  1  0
 12 13  2  0
 13 14  1  0
 14 15  2  0
 15 16  1  0
 16 17  2  0
 15 18  1  0
 18 19  1  0
 19 20  1  0
 20 21  1  0
 21 22  1  0
 22 23  1  0
 23 24  1  0
 24 25  1  0
 11  4  1  0
 10  6  1  0
 12 17  1  0
 25 20  1  0
  3 26  1  0
  4 27  1  0
  5 28  1  0
  5 29  1  0
  6 30  1  0
  7 31  1  0
  7 32  1  0
  8 33  1  0
  9 34  1  0
  9 35  1  0
 10 36  1  0
 11 37  1  0
 11 38  1  0
 13 39  1  0
 14 40  1  0
 16 41  1  0
 17 42  1  0
 19 43  1  0
 19 44  1  0
 20 45  1  0
 21 46  1  0
 21 47  1  0
 22 48  1  0
 22 49  1  0
 23 50  1  0
 23 51  1  0
 24 52  1  0
 24 53  1  0
 25 54  1  0
 25 55  1  0
M  END
$$$$
