
     RDKit          3D

 42 44  0  0  0  0  0  0  0  0999 V2000
   -0.5455   -0.9914    2.1985 C   0  0  0  0  0  0  0  0  0  0  0  0
   -0.5692   -2.4757    1.8425 C   0  0  0  0  0  0  0  0  0  0  0  0
   -0.6761   -2.6623    0.3883 N   0  0  0  0  0  0  0  0  0  0  0  0
    0.3918   -3.3517   -0.3462 C   0  0  0  0  0  0  0  0  0  0  0  0
    1.5057   -2.4056   -0.6652 C   0  0  0  0  0  0  0  0  0  0  0  0
    1.7963   -1.8644   -1.8971 C   0  0  0  0  0  0  0  0  0  0  0  0
    2.8104   -1.0076   -1.6938 N   0  0  0  0  0  0  0  0  0  0  0  0
    3.3814   -0.0932   -2.6745 C   0  0  0  0  0  0  0  0  0  0  0  0
    2.5102    1.1139   -2.8023 C   0  0  0  0  0  0  0  0  0  0  0  0
    2.6174    2.1985   -2.0045 N   0  0  0  0  0  0  0  0  0  0  0  0
    1.6480    3.1158   -2.2655 C   0  0  0  0  0  0  0  0  0  0  0  0
    0.7489    2.7572   -3.2632 C   0  0  0  0  0  0  0  0  0  0  0  0
    1.1873    1.2371   -3.8331 S   0  0  0  0  0  0  0  0  0  0  0  0
    3.1159   -1.0125   -0.4059 N   0  0  0  0  0  0  0  0  0  0  0  0
    2.3375   -1.8636    0.2476 N   0  0  0  0  0  0  0  0  0  0  0  0
   -1.8410   -2.1907   -0.3146 C   0  0  0  0  0  0  0  0  0  0  0  0
   -3.1172   -2.6534    0.0401 C   0  0  0  0  0  0  0  0  0  0  0  0
   -4.2488   -2.1808   -0.6293 C   0  0  0  0  0  0  0  0  0  0  0  0
   -4.1167   -1.2430   -1.6566 C   0  0  0  0  0  0  0  0  0  0  0  0
   -2.8462   -0.7793   -2.0300 C   0  0  0  0  0  0  0  0  0  0  0  0
   -1.7132   -1.2474   -1.3468 C   0  0  0  0  0  0  0  0  0  0  0  0
   -2.7031    0.2669   -3.1002 C   0  0  0  0  0  0  0  0  0  0  0  0
   -2.7462    1.5458   -2.5300 O   0  0  0  0  0  0  0  0  0  0  0  0
    0.2857   -0.4821    1.6664 H   0  0  0  0  0  0  0  0  0  0  0  0
   -0.3975   -0.8724    3.2927 H   0  0  0  0  0  0  0  0  0  0  0  0
   -1.5061   -0.5108    1.9165 H   0  0  0  0  0  0  0  0  0  0  0  0
   -1.4244   -2.9670    2.3525 H   0  0  0  0  0  0  0  0  0  0  0  0
    0.3620   -2.9445    2.2293 H   0  0  0  0  0  0  0  0  0  0  0  0
   -0.0104   -3.7932   -1.2847 H   0  0  0  0  0  0  0  0  0  0  0  0
    0.7902   -4.1927    0.2609 H   0  0  0  0  0  0  0  0  0  0  0  0
    1.2904   -2.0371   -2.8389 H   0  0  0  0  0  0  0  0  0  0  0  0
    3.4672   -0.6012   -3.6594 H   0  0  0  0  0  0  0  0  0  0  0  0
    4.4009    0.2128   -2.3553 H   0  0  0  0  0  0  0  0  0  0  0  0
    1.5825    4.0495   -1.7236 H   0  0  0  0  0  0  0  0  0  0  0  0
   -0.0917    3.3477   -3.6016 H   0  0  0  0  0  0  0  0  0  0  0  0
   -3.2348   -3.3865    0.8273 H   0  0  0  0  0  0  0  0  0  0  0  0
   -5.2306   -2.5405   -0.3497 H   0  0  0  0  0  0  0  0  0  0  0  0
   -5.0038   -0.8775   -2.1589 H   0  0  0  0  0  0  0  0  0  0  0  0
   -0.7382   -0.8563   -1.6018 H   0  0  0  0  0  0  0  0  0  0  0  0
   -1.7536    0.1224   -3.6645 H   0  0  0  0  0  0  0  0  0  0  0  0
   -3.5307    0.1756   -3.8351 H   0  0  0  0  0  0  0  0  0  0  0  0
   -1.8584    1.7014   -2.1123 H   0  0  0  0  0  0  0  0  0  0  0  0
  1  2  1  0
  2  3  1  0
  3  4  1  0
  4  5  1  0
  5  6  2  0
  6  7  1  0
  7  8  1  0
  8  9  1  0
  9 10  2  0
 10 11  1  0
 11 12  2  0
 12 13  1  0
  7 14  1  0
 14 15  2  0
  3 16  1  0
 16 17  2  0
 17 18  1  0
 18 19  2  0
 19 20  1  0
 20 21  2  0
 20 22  1  0
 22 23  1  0
 15  5  1  0
 13  9  1  0
 16 21  1  0
  1 24  1  0
  1 25  1  0
  1 26  1  0
  2 27  1  0
  2 28  1  0
  4 29  1  0
  4 30  1  0
  6 31  1  0
  8 32  1  0
  8 33  1  0
 11 34  1  0
 12 35  1  0
 17 36  1  0
 18 37  1  0
 19 38  1  0
 21 39  1  0
 22 40  1  0
 22 41  1  0
 23 42  1  0
M  END
$$$$
