
     RDKit          3D

 35 37  0  0  0  0  0  0  0  0999 V2000
   -0.5591    0.1830   -2.3262 O   0  0  0  0  0  0  0  0  0  0  0  0
   -0.3031   -0.8107   -1.5923 C   0  0  0  0  0  0  0  0  0  0  0  0
   -0.0158   -2.0637   -2.2196 N   0  0  0  0  0  0  0  0  0  0  0  0
    0.0836   -2.5530   -3.6074 C   0  0  0  0  0  0  0  0  0  0  0  0
    0.4613   -3.9590   -3.2554 C   0  0  0  0  0  0  0  0  0  0  0  0
    1.8831   -4.3536   -3.6685 C   0  0  0  0  0  0  0  0  0  0  0  0
    1.9286   -4.5583   -5.0351 F   0  0  0  0  0  0  0  0  0  0  0  0
    0.3507   -3.4461   -1.8526 C   0  0  0  0  0  0  0  0  0  0  0  0
   -0.2240   -0.6435   -0.0816 C   0  0  0  0  0  0  0  0  0  0  0  0
   -0.8048   -1.7678    0.5458 O   0  0  0  0  0  0  0  0  0  0  0  0
    1.2642   -0.5050    0.3506 C   0  0  0  0  0  0  0  0  0  0  0  0
    1.8279    0.8329   -0.0188 C   0  0  0  0  0  0  0  0  0  0  0  0
    3.0375    0.9428   -0.3527 O   0  0  0  0  0  0  0  0  0  0  0  0
    1.0048    1.9945    0.0848 N   0  0  0  0  0  0  0  0  0  0  0  0
   -0.3939    1.8682    0.3715 C   0  0  0  0  0  0  0  0  0  0  0  0
   -1.1481    3.0120    0.6688 C   0  0  0  0  0  0  0  0  0  0  0  0
   -2.5160    2.9080    0.9251 C   0  0  0  0  0  0  0  0  0  0  0  0
   -3.1454    1.6630    0.8718 C   0  0  0  0  0  0  0  0  0  0  0  0
   -5.0233    1.5298    1.1938 Br  0  0  0  0  0  0  0  0  0  0  0  0
   -2.4055    0.5163    0.5683 C   0  0  0  0  0  0  0  0  0  0  0  0
   -1.0171    0.5975    0.3387 C   0  0  0  0  0  0  0  0  0  0  0  0
    0.8689   -1.9958   -4.1663 H   0  0  0  0  0  0  0  0  0  0  0  0
   -0.9047   -2.4962   -4.1155 H   0  0  0  0  0  0  0  0  0  0  0  0
   -0.3193   -4.7075   -3.5160 H   0  0  0  0  0  0  0  0  0  0  0  0
    2.6199   -3.5667   -3.3954 H   0  0  0  0  0  0  0  0  0  0  0  0
    2.1658   -5.2968   -3.1557 H   0  0  0  0  0  0  0  0  0  0  0  0
    1.3079   -3.4668   -1.2849 H   0  0  0  0  0  0  0  0  0  0  0  0
   -0.4762   -3.9402   -1.2958 H   0  0  0  0  0  0  0  0  0  0  0  0
   -0.1288   -2.4899    0.6216 H   0  0  0  0  0  0  0  0  0  0  0  0
    1.3374   -0.6113    1.4547 H   0  0  0  0  0  0  0  0  0  0  0  0
    1.8788   -1.3112   -0.1068 H   0  0  0  0  0  0  0  0  0  0  0  0
    1.4345    2.9394   -0.0376 H   0  0  0  0  0  0  0  0  0  0  0  0
   -0.6744    3.9852    0.6996 H   0  0  0  0  0  0  0  0  0  0  0  0
   -3.0884    3.7975    1.1546 H   0  0  0  0  0  0  0  0  0  0  0  0
   -2.9190   -0.4343    0.5011 H   0  0  0  0  0  0  0  0  0  0  0  0
  1  2  2  0
  2  3  1  0
  3  4  1  0
  4  5  1  0
  5  6  1  0
  6  7  1  0
  5  8  1  0
  2  9  1  0
  9 10  1  0
  9 11  1  0
 11 12  1  0
 12 13  2  0
 12 14  1  0
 14 15  1  0
 15 16  2  0
 16 17  1  0
 17 18  2  0
 18 19  1  0
 18 20  1  0
 20 21  2  0
  8  3  1  0
 21  9  1  0
 15 21  1  0
  4 22  1  0
  4 23  1  0
  5 24  1  0
  6 25  1  0
  6 26  1  0
  8 27  1  0
  8 28  1  0
 10 29  1  0
 11 30  1  0
 11 31  1  0
 14 32  1  0
 16 33  1  0
 17 34  1  0
 20 35  1  0
M  END
$$$$
