
     RDKit          3D

 46 48  0  0  0  0  0  0  0  0999 V2000
    0.3304    3.1846    0.2591 O   0  0  0  0  0  0  0  0  0  0  0  0
   -0.1637    2.0309    0.3771 C   0  0  0  0  0  0  0  0  0  0  0  0
   -0.6071    1.5734    1.6640 N   0  0  0  0  0  0  0  0  0  0  0  0
   -0.3667    2.3271    2.8942 C   0  0  0  0  0  0  0  0  0  0  0  0
    1.1188    2.2431    3.3161 C   0  0  0  0  0  0  0  0  0  0  0  0
    1.4144    3.2013    4.4844 C   0  0  0  0  0  0  0  0  0  0  0  0
    0.8119    2.6931    5.8166 C   0  0  0  0  0  0  0  0  0  0  0  0
    0.4251    1.3279    5.7835 O   0  0  0  0  0  0  0  0  0  0  0  0
    1.4463    0.5419    5.2057 C   0  0  0  0  0  0  0  0  0  0  0  0
    1.5411    0.8005    3.6911 C   0  0  0  0  0  0  0  0  0  0  0  0
   -0.2615    1.1410   -0.8046 C   0  0  0  0  0  0  0  0  0  0  0  0
    0.0231   -0.2237   -0.6508 C   0  0  0  0  0  0  0  0  0  0  0  0
   -0.0285   -1.0614   -1.7156 N   0  0  0  0  0  0  0  0  0  0  0  0
   -0.3687   -0.6100   -2.9499 C   0  0  0  0  0  0  0  0  0  0  0  0
   -0.6443    0.7071   -3.1284 N   0  0  0  0  0  0  0  0  0  0  0  0
   -0.6147    1.5976   -2.0993 C   0  0  0  0  0  0  0  0  0  0  0  0
   -0.9644    3.0348   -2.3954 C   0  0  0  0  0  0  0  0  0  0  0  0
   -1.8703    3.5133   -1.4656 F   0  0  0  0  0  0  0  0  0  0  0  0
   -1.5384    3.1397   -3.6507 F   0  0  0  0  0  0  0  0  0  0  0  0
    0.1806    3.8093   -2.3724 F   0  0  0  0  0  0  0  0  0  0  0  0
   -0.3886   -1.4958   -4.0783 N   0  0  0  0  0  0  0  0  0  0  0  0
   -0.3386   -2.9294   -3.9822 C   0  0  0  0  0  0  0  0  0  0  0  0
   -0.9982   -3.6189   -2.9475 C   0  0  0  0  0  0  0  0  0  0  0  0
   -0.9546   -5.0156   -2.8916 C   0  0  0  0  0  0  0  0  0  0  0  0
   -0.2671   -5.7353   -3.8722 C   0  0  0  0  0  0  0  0  0  0  0  0
    0.3701   -5.0598   -4.9160 C   0  0  0  0  0  0  0  0  0  0  0  0
    0.3282   -3.6633   -4.9758 C   0  0  0  0  0  0  0  0  0  0  0  0
   -1.1776    0.6999    1.7250 H   0  0  0  0  0  0  0  0  0  0  0  0
   -0.6644    3.3866    2.7357 H   0  0  0  0  0  0  0  0  0  0  0  0
   -1.0151    1.9209    3.7000 H   0  0  0  0  0  0  0  0  0  0  0  0
    1.7366    2.5728    2.4519 H   0  0  0  0  0  0  0  0  0  0  0  0
    2.5181    3.2795    4.6010 H   0  0  0  0  0  0  0  0  0  0  0  0
    1.0413    4.2242    4.2579 H   0  0  0  0  0  0  0  0  0  0  0  0
   -0.0933    3.2946    6.0451 H   0  0  0  0  0  0  0  0  0  0  0  0
    1.5290    2.8623    6.6503 H   0  0  0  0  0  0  0  0  0  0  0  0
    1.2119   -0.5299    5.3777 H   0  0  0  0  0  0  0  0  0  0  0  0
    2.4275    0.7381    5.6980 H   0  0  0  0  0  0  0  0  0  0  0  0
    2.5936    0.6332    3.3735 H   0  0  0  0  0  0  0  0  0  0  0  0
    0.9226    0.0536    3.1480 H   0  0  0  0  0  0  0  0  0  0  0  0
    0.3136   -0.6223    0.3128 H   0  0  0  0  0  0  0  0  0  0  0  0
   -0.3570   -1.0648   -5.0302 H   0  0  0  0  0  0  0  0  0  0  0  0
   -1.5669   -3.0834   -2.1991 H   0  0  0  0  0  0  0  0  0  0  0  0
   -1.4621   -5.5407   -2.0926 H   0  0  0  0  0  0  0  0  0  0  0  0
   -0.2360   -6.8163   -3.8283 H   0  0  0  0  0  0  0  0  0  0  0  0
    0.8949   -5.6182   -5.6804 H   0  0  0  0  0  0  0  0  0  0  0  0
    0.8239   -3.1509   -5.7908 H   0  0  0  0  0  0  0  0  0  0  0  0
  1  2  2  0
  2  3  1  0
  3  4  1  0
  4  5  1  0
  5  6  1  0
  6  7  1  0
  7  8  1  0
  8  9  1  0
  9 10  1  0
  2 11  1  0
 11 12  2  0
 12 13  1  0
 13 14  2  0
 14 15  1  0
 15 16  2  0
 16 17  1  0
 17 18  1  0
 17 19  1  0
 17 20  1  0
 14 21  1  0
 21 22  1  0
 22 23  2  0
 23 24  1  0
 24 25  2  0
 25 26  1  0
 26 27  2  0
 10  5  1  0
 11 16  1  0
 22 27  1  0
  3 28  1  0
  4 29  1  0
  4 30  1  0
  5 31  1  0
  6 32  1  0
  6 33  1  0
  7 34  1  0
  7 35  1  0
  9 36  1  0
  9 37  1  0
 10 38  1  0
 10 39  1  0
 12 40  1  0
 21 41  1  0
 23 42  1  0
 24 43  1  0
 25 44  1  0
 26 45  1  0
 27 46  1  0
M  END
$$$$
