
     RDKit          3D

 39 41  0  0  0  0  0  0  0  0999 V2000
    0.5225    3.4609    0.4489 C   0  0  0  0  0  0  0  0  0  0  0  0
    1.8820    2.9366    0.8330 C   0  0  0  0  0  0  0  0  0  0  0  0
    2.9194    3.8595    1.0543 C   0  0  0  0  0  0  0  0  0  0  0  0
    4.2069    3.4210    1.3682 C   0  0  0  0  0  0  0  0  0  0  0  0
    4.4756    2.0568    1.4681 C   0  0  0  0  0  0  0  0  0  0  0  0
    3.4541    1.1260    1.2718 C   0  0  0  0  0  0  0  0  0  0  0  0
    2.1462    1.5492    0.9770 C   0  0  0  0  0  0  0  0  0  0  0  0
    1.0951    0.5211    0.8137 C   0  0  0  0  0  0  0  0  0  0  0  0
    1.3409   -0.5041    0.1215 O   0  0  0  0  0  0  0  0  0  0  0  0
   -0.1671    0.6557    1.4857 N   0  0  0  0  0  0  0  0  0  0  0  0
   -1.3088   -0.1593    1.1948 C   0  0  0  0  0  0  0  0  0  0  0  0
   -1.3520   -1.0753    0.2044 N   0  0  0  0  0  0  0  0  0  0  0  0
   -2.5602   -1.7006    0.1371 C   0  0  0  0  0  0  0  0  0  0  0  0
   -3.4891   -1.2651    1.0877 C   0  0  0  0  0  0  0  0  0  0  0  0
   -2.7633   -0.0722    2.0268 S   0  0  0  0  0  0  0  0  0  0  0  0
   -2.8442   -2.7508   -0.8760 C   0  0  0  0  0  0  0  0  0  0  0  0
   -4.1630   -2.9496   -1.3299 C   0  0  0  0  0  0  0  0  0  0  0  0
   -4.4467   -3.9197   -2.2919 C   0  0  0  0  0  0  0  0  0  0  0  0
   -3.4225   -4.7041   -2.8169 C   0  0  0  0  0  0  0  0  0  0  0  0
   -2.1091   -4.5233   -2.3824 C   0  0  0  0  0  0  0  0  0  0  0  0
   -1.8034   -3.5501   -1.4087 C   0  0  0  0  0  0  0  0  0  0  0  0
   -0.4898   -3.3681   -0.9413 O   0  0  0  0  0  0  0  0  0  0  0  0
    0.6548   -4.0725   -1.4140 C   0  0  0  0  0  0  0  0  0  0  0  0
    1.7561   -3.6919   -0.6721 F   0  0  0  0  0  0  0  0  0  0  0  0
    0.8816   -3.7662   -2.7436 F   0  0  0  0  0  0  0  0  0  0  0  0
   -0.1004    3.5899    1.3578 H   0  0  0  0  0  0  0  0  0  0  0  0
    0.0154    2.7717   -0.2583 H   0  0  0  0  0  0  0  0  0  0  0  0
    0.6078    4.4449   -0.0597 H   0  0  0  0  0  0  0  0  0  0  0  0
    2.7346    4.9236    0.9704 H   0  0  0  0  0  0  0  0  0  0  0  0
    4.9993    4.1408    1.5279 H   0  0  0  0  0  0  0  0  0  0  0  0
    5.4762    1.7194    1.7058 H   0  0  0  0  0  0  0  0  0  0  0  0
    3.6804    0.0711    1.3710 H   0  0  0  0  0  0  0  0  0  0  0  0
   -0.2577    1.3679    2.2440 H   0  0  0  0  0  0  0  0  0  0  0  0
   -4.4960   -1.6359    1.2225 H   0  0  0  0  0  0  0  0  0  0  0  0
   -4.9767   -2.3403   -0.9593 H   0  0  0  0  0  0  0  0  0  0  0  0
   -5.4637   -4.0592   -2.6354 H   0  0  0  0  0  0  0  0  0  0  0  0
   -3.6463   -5.4548   -3.5639 H   0  0  0  0  0  0  0  0  0  0  0  0
   -1.3390   -5.1517   -2.8073 H   0  0  0  0  0  0  0  0  0  0  0  0
    0.5086   -5.1668   -1.2955 H   0  0  0  0  0  0  0  0  0  0  0  0
  1  2  1  0
  2  3  2  0
  3  4  1  0
  4  5  2  0
  5  6  1  0
  6  7  2  0
  7  8  1  0
  8  9  2  0
  8 10  1  0
 10 11  1  0
 11 12  2  0
 12 13  1  0
 13 14  2  0
 14 15  1  0
 13 16  1  0
 16 17  2  0
 17 18  1  0
 18 19  2  0
 19 20  1  0
 20 21  2  0
 21 22  1  0
 22 23  1  0
 23 24  1  0
 23 25  1  0
  2  7  1  0
 15 11  1  0
 16 21  1  0
  1 26  1  0
  1 27  1  0
  1 28  1  0
  3 29  1  0
  4 30  1  0
  5 31  1  0
  6 32  1  0
 10 33  1  0
 14 34  1  0
 17 35  1  0
 18 36  1  0
 19 37  1  0
 20 38  1  0
 23 39  1  0
M  END
$$$$
