
     RDKit          3D

 42 44  0  0  0  0  0  0  0  0999 V2000
    1.3872    7.4458    0.8475 C   0  0  0  0  0  0  0  0  0  0  0  0
    1.4682    6.0699    1.4152 C   0  0  0  0  0  0  0  0  0  0  0  0
    1.8876    5.8063    2.6700 N   0  0  0  0  0  0  0  0  0  0  0  0
    1.7720    4.4687    2.7634 C   0  0  0  0  0  0  0  0  0  0  0  0
    1.2824    3.9767    1.5682 C   0  0  0  0  0  0  0  0  0  0  0  0
    1.1036    4.9924    0.7612 O   0  0  0  0  0  0  0  0  0  0  0  0
    0.9946    2.5694    1.2093 C   0  0  0  0  0  0  0  0  0  0  0  0
    1.2274    1.5173    2.1118 C   0  0  0  0  0  0  0  0  0  0  0  0
    0.9569    0.1955    1.7437 C   0  0  0  0  0  0  0  0  0  0  0  0
    0.4395   -0.1011    0.4752 C   0  0  0  0  0  0  0  0  0  0  0  0
    0.2169    0.9507   -0.4314 C   0  0  0  0  0  0  0  0  0  0  0  0
    0.4896    2.2702   -0.0657 C   0  0  0  0  0  0  0  0  0  0  0  0
    0.1722   -1.4701    0.1270 N   0  0  0  0  0  0  0  0  0  0  0  0
   -0.8379   -1.9426   -1.2043 S   0  0  0  0  0  0  0  0  0  0  0  0
   -0.0585   -1.8056   -2.4825 O   0  0  0  0  0  0  0  0  0  0  0  0
   -2.0519   -1.0591   -1.2771 O   0  0  0  0  0  0  0  0  0  0  0  0
   -1.3581   -3.6206   -0.9780 C   0  0  0  0  0  0  0  0  0  0  0  0
   -0.9007   -4.5993   -1.8751 C   0  0  0  0  0  0  0  0  0  0  0  0
   -1.2853   -5.9391   -1.7348 C   0  0  0  0  0  0  0  0  0  0  0  0
   -0.8345   -6.9641   -2.7329 C   0  0  0  0  0  0  0  0  0  0  0  0
   -2.1581   -6.2989   -0.7032 C   0  0  0  0  0  0  0  0  0  0  0  0
   -2.6187   -5.3366    0.1980 C   0  0  0  0  0  0  0  0  0  0  0  0
   -2.2206   -3.9959    0.0818 C   0  0  0  0  0  0  0  0  0  0  0  0
   -2.7432   -2.9923    1.0770 C   0  0  0  0  0  0  0  0  0  0  0  0
    1.5584    7.4118   -0.2484 H   0  0  0  0  0  0  0  0  0  0  0  0
    0.3814    7.8691    1.0465 H   0  0  0  0  0  0  0  0  0  0  0  0
    2.1573    8.0953    1.3137 H   0  0  0  0  0  0  0  0  0  0  0  0
    2.0285    3.9063    3.6484 H   0  0  0  0  0  0  0  0  0  0  0  0
    1.6222    1.7064    3.1000 H   0  0  0  0  0  0  0  0  0  0  0  0
    1.1484   -0.6024    2.4522 H   0  0  0  0  0  0  0  0  0  0  0  0
   -0.1515    0.7607   -1.4290 H   0  0  0  0  0  0  0  0  0  0  0  0
    0.3102    3.0586   -0.7855 H   0  0  0  0  0  0  0  0  0  0  0  0
    0.5191   -2.2316    0.7544 H   0  0  0  0  0  0  0  0  0  0  0  0
   -0.2444   -4.3229   -2.6903 H   0  0  0  0  0  0  0  0  0  0  0  0
   -0.7684   -7.9681   -2.2628 H   0  0  0  0  0  0  0  0  0  0  0  0
   -1.5615   -7.0032   -3.5700 H   0  0  0  0  0  0  0  0  0  0  0  0
    0.1674   -6.7057   -3.1344 H   0  0  0  0  0  0  0  0  0  0  0  0
   -2.4854   -7.3255   -0.5989 H   0  0  0  0  0  0  0  0  0  0  0  0
   -3.2883   -5.6451    0.9904 H   0  0  0  0  0  0  0  0  0  0  0  0
   -3.3930   -2.2535    0.5607 H   0  0  0  0  0  0  0  0  0  0  0  0
   -1.9001   -2.4685    1.5716 H   0  0  0  0  0  0  0  0  0  0  0  0
   -3.3491   -3.4791    1.8716 H   0  0  0  0  0  0  0  0  0  0  0  0
  1  2  1  0
  2  3  2  0
  3  4  1  0
  4  5  2  0
  5  6  1  0
  5  7  1  0
  7  8  2  0
  8  9  1  0
  9 10  2  0
 10 11  1  0
 11 12  2  0
 10 13  1  0
 13 14  1  0
 14 15  2  0
 14 16  2  0
 14 17  1  0
 17 18  2  0
 18 19  1  0
 19 20  1  0
 19 21  2  0
 21 22  1  0
 22 23  2  0
 23 24  1  0
  6  2  1  0
  7 12  1  0
 17 23  1  0
  1 25  1  0
  1 26  1  0
  1 27  1  0
  4 28  1  0
  8 29  1  0
  9 30  1  0
 11 31  1  0
 12 32  1  0
 13 33  1  0
 18 34  1  0
 20 35  1  0
 20 36  1  0
 20 37  1  0
 21 38  1  0
 22 39  1  0
 24 40  1  0
 24 41  1  0
 24 42  1  0
M  END
$$$$
