
     RDKit          3D

 47 50  0  0  0  0  0  0  0  0999 V2000
   -0.0622   -6.0055    1.9006 C   0  0  0  0  0  0  0  0  0  0  0  0
    0.3868   -4.8427    1.2156 O   0  0  0  0  0  0  0  0  0  0  0  0
   -0.2705   -3.6128    1.3109 C   0  0  0  0  0  0  0  0  0  0  0  0
   -1.2927   -3.4854    2.0408 O   0  0  0  0  0  0  0  0  0  0  0  0
    0.2778   -2.4251    0.5719 C   0  0  0  0  0  0  0  0  0  0  0  0
    1.1849   -1.5938    1.5156 C   0  0  0  0  0  0  0  0  0  0  0  0
    1.3408   -0.1816    1.0162 C   0  0  0  0  0  0  0  0  0  0  0  0
    2.5721    0.4874    1.0734 C   0  0  0  0  0  0  0  0  0  0  0  0
    2.6691    1.8112    0.6319 C   0  0  0  0  0  0  0  0  0  0  0  0
    1.5372    2.4751    0.1474 C   0  0  0  0  0  0  0  0  0  0  0  0
    0.3036    1.8184    0.1037 C   0  0  0  0  0  0  0  0  0  0  0  0
    0.2044    0.4890    0.5393 C   0  0  0  0  0  0  0  0  0  0  0  0
   -1.0883   -0.2688    0.4869 C   0  0  0  0  0  0  0  0  0  0  0  0
   -0.8222   -1.6272   -0.0214 N   0  0  0  0  0  0  0  0  0  0  0  0
   -1.5232   -2.1503   -1.1744 C   0  0  0  0  0  0  0  0  0  0  0  0
   -1.4877   -3.3870   -1.4214 O   0  0  0  0  0  0  0  0  0  0  0  0
   -2.3208   -1.2509   -2.0830 C   0  0  0  0  0  0  0  0  0  0  0  0
   -2.2722   -1.5862   -3.5746 C   0  0  0  0  0  0  0  0  0  0  0  0
   -1.5142   -0.3681   -3.0434 C   0  0  0  0  0  0  0  0  0  0  0  0
   -2.1298    1.0021   -3.3639 C   0  0  0  0  0  0  0  0  0  0  0  0
   -1.4031    1.6830   -4.5484 C   0  0  0  0  0  0  0  0  0  0  0  0
   -0.2600    0.9749   -5.0038 O   0  0  0  0  0  0  0  0  0  0  0  0
    0.5985    0.6821   -3.9190 C   0  0  0  0  0  0  0  0  0  0  0  0
    0.0263   -0.4739   -3.0923 C   0  0  0  0  0  0  0  0  0  0  0  0
    0.6201   -6.8497    1.6717 H   0  0  0  0  0  0  0  0  0  0  0  0
   -1.0882   -6.2703    1.5675 H   0  0  0  0  0  0  0  0  0  0  0  0
   -0.0578   -5.8264    2.9967 H   0  0  0  0  0  0  0  0  0  0  0  0
    0.9237   -2.7912   -0.2579 H   0  0  0  0  0  0  0  0  0  0  0  0
    0.7398   -1.5422    2.5338 H   0  0  0  0  0  0  0  0  0  0  0  0
    2.1753   -2.0924    1.6047 H   0  0  0  0  0  0  0  0  0  0  0  0
    3.4528   -0.0132    1.4557 H   0  0  0  0  0  0  0  0  0  0  0  0
    3.6214    2.3245    0.6687 H   0  0  0  0  0  0  0  0  0  0  0  0
    1.6161    3.4995   -0.1928 H   0  0  0  0  0  0  0  0  0  0  0  0
   -0.5661    2.3404   -0.2752 H   0  0  0  0  0  0  0  0  0  0  0  0
   -1.5022   -0.3425    1.5151 H   0  0  0  0  0  0  0  0  0  0  0  0
   -1.8350    0.2748   -0.1255 H   0  0  0  0  0  0  0  0  0  0  0  0
   -3.2998   -0.8593   -1.7327 H   0  0  0  0  0  0  0  0  0  0  0  0
   -3.2236   -1.3725   -4.1065 H   0  0  0  0  0  0  0  0  0  0  0  0
   -1.6598   -2.4744   -3.8403 H   0  0  0  0  0  0  0  0  0  0  0  0
   -3.2187    0.9268   -3.5795 H   0  0  0  0  0  0  0  0  0  0  0  0
   -2.0196    1.6418   -2.4617 H   0  0  0  0  0  0  0  0  0  0  0  0
   -2.1125    1.7610   -5.3997 H   0  0  0  0  0  0  0  0  0  0  0  0
   -1.1204    2.7248   -4.2775 H   0  0  0  0  0  0  0  0  0  0  0  0
    1.5915    0.3860   -4.3185 H   0  0  0  0  0  0  0  0  0  0  0  0
    0.7660    1.5778   -3.2749 H   0  0  0  0  0  0  0  0  0  0  0  0
    0.3513   -1.4363   -3.5434 H   0  0  0  0  0  0  0  0  0  0  0  0
    0.4547   -0.4183   -2.0725 H   0  0  0  0  0  0  0  0  0  0  0  0
  1  2  1  0
  2  3  1  0
  3  4  2  0
  3  5  1  0
  5  6  1  0
  6  7  1  0
  7  8  2  0
  8  9  1  0
  9 10  2  0
 10 11  1  0
 11 12  2  0
 12 13  1  0
 13 14  1  0
 14 15  1  0
 15 16  2  0
 15 17  1  0
 17 18  1  0
 18 19  1  0
 19 20  1  0
 20 21  1  0
 21 22  1  0
 22 23  1  0
 23 24  1  0
 14  5  1  0
 12  7  1  0
 19 17  1  0
 24 19  1  0
  1 25  1  0
  1 26  1  0
  1 27  1  0
  5 28  1  0
  6 29  1  0
  6 30  1  0
  8 31  1  0
  9 32  1  0
 10 33  1  0
 11 34  1  0
 13 35  1  0
 13 36  1  0
 17 37  1  0
 18 38  1  0
 18 39  1  0
 20 40  1  0
 20 41  1  0
 21 42  1  0
 21 43  1  0
 23 44  1  0
 23 45  1  0
 24 46  1  0
 24 47  1  0
M  END
$$$$
