
     RDKit          3D

  0  0  0  0  0  0  0  0  0  0999 V3000
M  V30 BEGIN CTAB
M  V30 COUNTS 55 59 0 0 0
M  V30 BEGIN ATOM
M  V30 1 C -4.219093 2.868720 0.908019 0
M  V30 2 N -4.682030 2.277018 2.180612 0
M  V30 3 C -5.139173 0.901182 1.946626 0
M  V30 4 C -3.922117 -0.010684 2.070030 0
M  V30 5 C -2.902648 0.766198 2.920603 0 CFG=2
M  V30 6 C -3.612740 2.111207 3.190688 0 CFG=1
M  V30 7 C -2.696941 3.344474 3.415540 0
M  V30 8 C -1.426616 3.347379 2.560462 0
M  V30 9 C -0.712840 2.008887 2.669122 0
M  V30 10 N -1.605807 0.931139 2.230552 0
M  V30 11 C -1.008407 -0.187014 1.548348 0
M  V30 12 O -1.096232 -1.345099 2.043053 0
M  V30 13 C -0.335103 0.013674 0.213506 0
M  V30 14 C -1.063960 -0.702808 -0.927690 0
M  V30 15 C 0.025306 -1.042364 -1.938736 0
M  V30 16 N 1.277164 -0.989019 -1.192472 0
M  V30 17 C 1.094600 -0.523246 0.173441 0
M  V30 18 C 2.538032 -1.448533 -1.713744 0
M  V30 19 C 3.352943 -2.295035 -0.943657 0
M  V30 20 C 4.577130 -2.750653 -1.446074 0
M  V30 21 C 5.014092 -2.360645 -2.723410 0
M  V30 22 C 4.202022 -1.510079 -3.490979 0
M  V30 23 C 2.976125 -1.058244 -2.995038 0
M  V30 24 F 2.235452 -0.212789 -3.755053 0
M  V30 25 C 6.315266 -2.823978 -3.248198 0
M  V30 26 N 7.087208 -3.763872 -2.661132 0
M  V30 27 N 8.154396 -3.861255 -3.437822 0
M  V30 28 N 8.034232 -3.013990 -4.447413 0
M  V30 29 N 6.896357 -2.346271 -4.367400 0
M  V30 30 H -3.347076 2.318812 0.488786 0
M  V30 31 H -5.038822 2.850232 0.155878 0
M  V30 32 H -3.964940 3.938403 1.050045 0
M  V30 33 H -5.645366 0.772605 0.961070 0
M  V30 34 H -5.882097 0.634280 2.732877 0
M  V30 35 H -3.541968 -0.223538 1.047171 0
M  V30 36 H -4.198293 -0.971384 2.557912 0
M  V30 37 H -2.728871 0.234675 3.884027 0
M  V30 38 H -4.144894 1.985088 4.165582 0
M  V30 39 H -2.378415 3.350841 4.482658 0
M  V30 40 H -3.266582 4.285305 3.255901 0
M  V30 41 H -1.653276 3.564725 1.496446 0
M  V30 42 H -0.746862 4.150624 2.920791 0
M  V30 43 H 0.211272 2.048373 2.051062 0
M  V30 44 H -0.404055 1.825948 3.724179 0
M  V30 45 H -0.309179 1.099628 -0.035848 0
M  V30 46 H -1.847836 -0.054452 -1.377349 0
M  V30 47 H -1.532911 -1.648201 -0.569424 0
M  V30 48 H 0.027183 -0.287240 -2.755997 0
M  V30 49 H -0.131752 -2.062265 -2.362914 0
M  V30 50 H 1.232778 -1.374154 0.875579 0
M  V30 51 H 1.823057 0.283823 0.410049 0
M  V30 52 H 3.037744 -2.617074 0.041424 0
M  V30 53 H 5.185501 -3.402019 -0.830868 0
M  V30 54 H 4.517674 -1.189956 -4.475628 0
M  V30 55 H 8.741159 -2.890942 -5.206437 0
M  V30 END ATOM
M  V30 BEGIN BOND
M  V30 1 1 1 2
M  V30 2 1 2 3
M  V30 3 1 3 4
M  V30 4 1 4 5
M  V30 5 1 5 6
M  V30 6 1 6 7
M  V30 7 1 7 8
M  V30 8 1 8 9
M  V30 9 1 9 10
M  V30 10 1 10 11
M  V30 11 2 11 12
M  V30 12 1 11 13
M  V30 13 1 13 14
M  V30 14 1 14 15
M  V30 15 1 15 16
M  V30 16 1 16 17
M  V30 17 1 16 18
M  V30 18 2 18 19
M  V30 19 1 19 20
M  V30 20 2 20 21
M  V30 21 1 21 22
M  V30 22 2 22 23
M  V30 23 1 23 24
M  V30 24 1 21 25
M  V30 25 1 25 26
M  V30 26 2 26 27
M  V30 27 1 27 28
M  V30 28 1 28 29
M  V30 29 1 6 2
M  V30 30 1 10 5
M  V30 31 1 17 13
M  V30 32 1 23 18
M  V30 33 2 25 29
M  V30 34 1 1 30
M  V30 35 1 1 31
M  V30 36 1 1 32
M  V30 37 1 3 33
M  V30 38 1 3 34
M  V30 39 1 4 35
M  V30 40 1 4 36
M  V30 41 1 5 37 CFG=1
M  V30 42 1 6 38 CFG=1
M  V30 43 1 7 39
M  V30 44 1 7 40
M  V30 45 1 8 41
M  V30 46 1 8 42
M  V30 47 1 9 43
M  V30 48 1 9 44
M  V30 49 1 13 45
M  V30 50 1 14 46
M  V30 51 1 14 47
M  V30 52 1 15 48
M  V30 53 1 15 49
M  V30 54 1 17 50
M  V30 55 1 17 51
M  V30 56 1 19 52
M  V30 57 1 20 53
M  V30 58 1 22 54
M  V30 59 1 28 55
M  V30 END BOND
M  V30 BEGIN COLLECTION
M  V30 MDLV30/STERAC1 ATOMS=(2 5 6)
M  V30 END COLLECTION
M  V30 END CTAB
M  END
>  <_CXSMILES_Data>  (1) 
|&1:4,5,r|

$$$$
