
     RDKit          3D

 59 61  0  0  0  0  0  0  0  0999 V2000
   -1.3070   -0.8643    2.7785 C   0  0  0  0  0  0  0  0  0  0  0  0
   -0.7114    0.3372    3.5155 C   0  0  0  0  0  0  0  0  0  0  0  0
    0.7486    0.4852    3.3426 N   0  0  0  0  0  0  0  0  0  0  0  0
    1.5684   -0.6023    3.9434 C   0  0  0  0  0  0  0  0  0  0  0  0
    2.7397    0.0046    4.7369 C   0  0  0  0  0  0  0  0  0  0  0  0
    3.5450   -1.0890    5.4548 C   0  0  0  0  0  0  0  0  0  0  0  0
    4.0385   -2.1562    4.4671 C   0  0  0  0  0  0  0  0  0  0  0  0
    2.8737   -2.7529    3.6647 C   0  0  0  0  0  0  0  0  0  0  0  0
    2.0977   -1.6499    2.9336 C   0  0  0  0  0  0  0  0  0  0  0  0
    1.2303    1.0768    1.7586 S   0  0  0  0  0  0  0  0  0  0  0  0
    2.6882    1.4400    1.7828 O   0  0  0  0  0  0  0  0  0  0  0  0
    1.0059    0.0242    0.7082 O   0  0  0  0  0  0  0  0  0  0  0  0
    0.2921    2.5415    1.3233 C   0  0  0  0  0  0  0  0  0  0  0  0
    0.8759    3.2600    0.1020 C   0  0  0  0  0  0  0  0  0  0  0  0
    0.8956    2.3874   -1.0706 N   0  0  0  0  0  0  0  0  0  0  0  0
   -0.2983    1.9526   -1.7353 C   0  0  0  0  0  0  0  0  0  0  0  0
   -1.4112    2.4547   -1.4210 O   0  0  0  0  0  0  0  0  0  0  0  0
   -0.2160    0.9202   -2.7299 N   0  0  0  0  0  0  0  0  0  0  0  0
   -1.3321    0.4131   -3.4755 C   0  0  0  0  0  0  0  0  0  0  0  0
   -2.5359    1.0536   -3.7154 C   0  0  0  0  0  0  0  0  0  0  0  0
   -3.2395    0.1621   -4.4979 C   0  0  0  0  0  0  0  0  0  0  0  0
   -2.4795   -0.9356   -4.6990 N   0  0  0  0  0  0  0  0  0  0  0  0
   -1.3129   -0.7835   -4.0911 N   0  0  0  0  0  0  0  0  0  0  0  0
   -2.8418   -2.0925   -5.4809 C   0  0  0  0  0  0  0  0  0  0  0  0
   -3.6518   -1.9348   -6.6215 C   0  0  0  0  0  0  0  0  0  0  0  0
   -4.0033   -3.0364   -7.4038 C   0  0  0  0  0  0  0  0  0  0  0  0
   -3.5546   -4.3110   -7.0602 C   0  0  0  0  0  0  0  0  0  0  0  0
   -2.7553   -4.4919   -5.9297 C   0  0  0  0  0  0  0  0  0  0  0  0
   -2.3413   -5.7433   -5.6048 F   0  0  0  0  0  0  0  0  0  0  0  0
   -2.3943   -3.3923   -5.1338 C   0  0  0  0  0  0  0  0  0  0  0  0
   -1.6100   -3.6274   -3.9446 C   0  0  0  0  0  0  0  0  0  0  0  0
   -0.9821   -3.8168   -2.9911 N   0  0  0  0  0  0  0  0  0  0  0  0
   -0.9045   -1.8133    3.1847 H   0  0  0  0  0  0  0  0  0  0  0  0
   -1.1169   -0.8056    1.6903 H   0  0  0  0  0  0  0  0  0  0  0  0
   -2.4067   -0.8735    2.9283 H   0  0  0  0  0  0  0  0  0  0  0  0
   -1.2299    1.2602    3.1860 H   0  0  0  0  0  0  0  0  0  0  0  0
   -0.9422    0.2386    4.5980 H   0  0  0  0  0  0  0  0  0  0  0  0
    0.9477   -1.1539    4.6867 H   0  0  0  0  0  0  0  0  0  0  0  0
    2.3438    0.7159    5.4937 H   0  0  0  0  0  0  0  0  0  0  0  0
    3.4152    0.5688    4.0601 H   0  0  0  0  0  0  0  0  0  0  0  0
    4.4202   -0.6263    5.9615 H   0  0  0  0  0  0  0  0  0  0  0  0
    2.9128   -1.5680    6.2360 H   0  0  0  0  0  0  0  0  0  0  0  0
    4.5496   -2.9671    5.0292 H   0  0  0  0  0  0  0  0  0  0  0  0
    4.7788   -1.7047    3.7698 H   0  0  0  0  0  0  0  0  0  0  0  0
    3.2736   -3.4769    2.9212 H   0  0  0  0  0  0  0  0  0  0  0  0
    2.1898   -3.3057    4.3475 H   0  0  0  0  0  0  0  0  0  0  0  0
    1.2592   -2.1111    2.3755 H   0  0  0  0  0  0  0  0  0  0  0  0
    2.7866   -1.1814    2.2012 H   0  0  0  0  0  0  0  0  0  0  0  0
   -0.7593    2.2562    1.1205 H   0  0  0  0  0  0  0  0  0  0  0  0
    0.3002    3.2355    2.1881 H   0  0  0  0  0  0  0  0  0  0  0  0
    1.9109    3.5925    0.3324 H   0  0  0  0  0  0  0  0  0  0  0  0
    0.2753    4.1686   -0.1195 H   0  0  0  0  0  0  0  0  0  0  0  0
    1.8211    2.0639   -1.4328 H   0  0  0  0  0  0  0  0  0  0  0  0
    0.7003    0.4333   -2.8502 H   0  0  0  0  0  0  0  0  0  0  0  0
   -2.8597    2.0347   -3.3982 H   0  0  0  0  0  0  0  0  0  0  0  0
   -4.2395    0.3088   -4.8841 H   0  0  0  0  0  0  0  0  0  0  0  0
   -3.9981   -0.9534   -6.9191 H   0  0  0  0  0  0  0  0  0  0  0  0
   -4.6217   -2.9001   -8.2817 H   0  0  0  0  0  0  0  0  0  0  0  0
   -3.8303   -5.1618   -7.6699 H   0  0  0  0  0  0  0  0  0  0  0  0
  1  2  1  0
  2  3  1  0
  3  4  1  0
  4  5  1  0
  5  6  1  0
  6  7  1  0
  7  8  1  0
  8  9  1  0
  3 10  1  0
 10 11  2  0
 10 12  2  0
 10 13  1  0
 13 14  1  0
 14 15  1  0
 15 16  1  0
 16 17  2  0
 16 18  1  0
 18 19  1  0
 19 20  1  0
 20 21  2  0
 21 22  1  0
 22 23  1  0
 22 24  1  0
 24 25  2  0
 25 26  1  0
 26 27  2  0
 27 28  1  0
 28 29  1  0
 28 30  2  0
 30 31  1  0
 31 32  3  0
  9  4  1  0
 19 23  2  0
 24 30  1  0
  1 33  1  0
  1 34  1  0
  1 35  1  0
  2 36  1  0
  2 37  1  0
  4 38  1  0
  5 39  1  0
  5 40  1  0
  6 41  1  0
  6 42  1  0
  7 43  1  0
  7 44  1  0
  8 45  1  0
  8 46  1  0
  9 47  1  0
  9 48  1  0
 13 49  1  0
 13 50  1  0
 14 51  1  0
 14 52  1  0
 15 53  1  0
 18 54  1  0
 20 55  1  0
 21 56  1  0
 25 57  1  0
 26 58  1  0
 27 59  1  0
M  END
$$$$
