
     RDKit          3D

 59 62  0  0  0  0  0  0  0  0999 V2000
    1.2535    7.7075   -1.0501 C   0  0  0  0  0  0  0  0  0  0  0  0
    1.1532    6.2190   -0.9058 C   0  0  0  0  0  0  0  0  0  0  0  0
    1.7304    5.4709    0.1015 C   0  0  0  0  0  0  0  0  0  0  0  0
    1.2463    4.1957   -0.1147 C   0  0  0  0  0  0  0  0  0  0  0  0
    0.4293    4.1744   -1.1877 N   0  0  0  0  0  0  0  0  0  0  0  0
    0.3896    5.4045   -1.6719 N   0  0  0  0  0  0  0  0  0  0  0  0
   -0.4035    5.7728   -2.8082 C   0  0  0  0  0  0  0  0  0  0  0  0
   -1.7845    5.5190   -2.8054 C   0  0  0  0  0  0  0  0  0  0  0  0
   -2.5631    5.8575   -3.9160 C   0  0  0  0  0  0  0  0  0  0  0  0
   -1.9670    6.4352   -5.0407 C   0  0  0  0  0  0  0  0  0  0  0  0
   -2.7219    6.7575   -6.1200 F   0  0  0  0  0  0  0  0  0  0  0  0
   -0.5882    6.6722   -5.0581 C   0  0  0  0  0  0  0  0  0  0  0  0
    0.1946    6.3412   -3.9472 C   0  0  0  0  0  0  0  0  0  0  0  0
    1.5378    6.5289   -4.0006 F   0  0  0  0  0  0  0  0  0  0  0  0
    1.5419    3.0574    0.7053 N   0  0  0  0  0  0  0  0  0  0  0  0
    0.9466    1.7644    0.5177 C   0  0  0  0  0  0  0  0  0  0  0  0
    0.0473    1.5961   -0.3529 O   0  0  0  0  0  0  0  0  0  0  0  0
    1.3652    0.6638    1.3376 N   0  0  0  0  0  0  0  0  0  0  0  0
    0.8199   -0.6886    1.1695 C   0  0  0  0  0  0  0  0  0  0  0  0
    1.3880   -1.3453   -0.0950 C   0  0  0  0  0  0  0  0  0  0  0  0
    0.7726   -2.7462   -0.3185 C   0  0  0  0  0  0  0  0  0  0  0  0
    0.1600   -3.3177    0.9118 N   0  0  0  0  0  0  0  0  0  0  0  0
    1.0515   -3.0753    2.0709 C   0  0  0  0  0  0  0  0  0  0  0  0
    1.1394   -1.5701    2.3955 C   0  0  0  0  0  0  0  0  0  0  0  0
   -0.1409   -4.7715    0.7650 C   0  0  0  0  0  0  0  0  0  0  0  0
   -0.9481   -5.0848   -0.5115 C   0  0  0  0  0  0  0  0  0  0  0  0
   -0.9449   -5.2723    1.9524 C   0  0  0  0  0  0  0  0  0  0  0  0
   -2.1073   -4.5944    2.3681 C   0  0  0  0  0  0  0  0  0  0  0  0
   -2.8460   -5.0625    3.4597 C   0  0  0  0  0  0  0  0  0  0  0  0
   -2.4382   -6.2124    4.1401 C   0  0  0  0  0  0  0  0  0  0  0  0
   -1.2889   -6.8971    3.7298 C   0  0  0  0  0  0  0  0  0  0  0  0
   -0.5450   -6.4328    2.6397 C   0  0  0  0  0  0  0  0  0  0  0  0
    1.7243    8.1495   -0.1461 H   0  0  0  0  0  0  0  0  0  0  0  0
    1.8751    7.9692   -1.9370 H   0  0  0  0  0  0  0  0  0  0  0  0
    0.2331    8.1423   -1.1692 H   0  0  0  0  0  0  0  0  0  0  0  0
    2.3693    5.8137    0.9053 H   0  0  0  0  0  0  0  0  0  0  0  0
   -2.2517    5.0674   -1.9406 H   0  0  0  0  0  0  0  0  0  0  0  0
   -3.6294    5.6680   -3.9048 H   0  0  0  0  0  0  0  0  0  0  0  0
   -0.1249    7.1059   -5.9349 H   0  0  0  0  0  0  0  0  0  0  0  0
    2.2220    3.1815    1.4897 H   0  0  0  0  0  0  0  0  0  0  0  0
    2.0518    0.8567    2.1003 H   0  0  0  0  0  0  0  0  0  0  0  0
   -0.2883   -0.6201    1.0730 H   0  0  0  0  0  0  0  0  0  0  0  0
    2.4924   -1.4377    0.0104 H   0  0  0  0  0  0  0  0  0  0  0  0
    1.1940   -0.7101   -0.9852 H   0  0  0  0  0  0  0  0  0  0  0  0
   -0.0192   -2.6371   -1.0929 H   0  0  0  0  0  0  0  0  0  0  0  0
    1.5613   -3.4238   -0.7215 H   0  0  0  0  0  0  0  0  0  0  0  0
    2.0706   -3.4715    1.8560 H   0  0  0  0  0  0  0  0  0  0  0  0
    0.6855   -3.5940    2.9831 H   0  0  0  0  0  0  0  0  0  0  0  0
    0.4260   -1.3196    3.2134 H   0  0  0  0  0  0  0  0  0  0  0  0
    2.1667   -1.3586    2.7688 H   0  0  0  0  0  0  0  0  0  0  0  0
    0.8176   -5.3376    0.6957 H   0  0  0  0  0  0  0  0  0  0  0  0
   -0.3187   -4.9630   -1.4177 H   0  0  0  0  0  0  0  0  0  0  0  0
   -1.8354   -4.4186   -0.5886 H   0  0  0  0  0  0  0  0  0  0  0  0
   -1.2939   -6.1424   -0.5021 H   0  0  0  0  0  0  0  0  0  0  0  0
   -2.4373   -3.7020    1.8505 H   0  0  0  0  0  0  0  0  0  0  0  0
   -3.7348   -4.5334    3.7775 H   0  0  0  0  0  0  0  0  0  0  0  0
   -3.0114   -6.5714    4.9860 H   0  0  0  0  0  0  0  0  0  0  0  0
   -0.9743   -7.7894    4.2560 H   0  0  0  0  0  0  0  0  0  0  0  0
    0.3449   -6.9765    2.3370 H   0  0  0  0  0  0  0  0  0  0  0  0
  1  2  1  0
  2  3  2  0
  3  4  1  0
  4  5  2  0
  5  6  1  0
  6  7  1  0
  7  8  2  0
  8  9  1  0
  9 10  2  0
 10 11  1  0
 10 12  1  0
 12 13  2  0
 13 14  1  0
  4 15  1  0
 15 16  1  0
 16 17  2  0
 16 18  1  0
 18 19  1  0
 19 20  1  0
 20 21  1  0
 21 22  1  0
 22 23  1  0
 23 24  1  0
 22 25  1  0
 25 26  1  0
 25 27  1  0
 27 28  2  0
 28 29  1  0
 29 30  2  0
 30 31  1  0
 31 32  2  0
  6  2  1  0
  7 13  1  0
 24 19  1  0
 27 32  1  0
  1 33  1  0
  1 34  1  0
  1 35  1  0
  3 36  1  0
  8 37  1  0
  9 38  1  0
 12 39  1  0
 15 40  1  0
 18 41  1  0
 19 42  1  0
 20 43  1  0
 20 44  1  0
 21 45  1  0
 21 46  1  0
 23 47  1  0
 23 48  1  0
 24 49  1  0
 24 50  1  0
 25 51  1  0
 26 52  1  0
 26 53  1  0
 26 54  1  0
 28 55  1  0
 29 56  1  0
 30 57  1  0
 31 58  1  0
 32 59  1  0
M  END
$$$$
