
     RDKit          3D

 39 41  0  0  0  0  0  0  0  0999 V2000
    0.8208   -2.4827    2.3856 C   0  0  0  0  0  0  0  0  0  0  0  0
    2.2329   -2.0960    2.0288 C   0  0  0  0  0  0  0  0  0  0  0  0
    3.2955   -2.8377    2.5755 C   0  0  0  0  0  0  0  0  0  0  0  0
    4.6191   -2.5006    2.2898 C   0  0  0  0  0  0  0  0  0  0  0  0
    4.9005   -1.4247    1.4501 C   0  0  0  0  0  0  0  0  0  0  0  0
    3.8596   -0.6854    0.8862 C   0  0  0  0  0  0  0  0  0  0  0  0
    2.5178   -1.0103    1.1581 C   0  0  0  0  0  0  0  0  0  0  0  0
    1.4458   -0.2158    0.5099 C   0  0  0  0  0  0  0  0  0  0  0  0
    0.4197   -0.8002    0.0679 O   0  0  0  0  0  0  0  0  0  0  0  0
    1.5800    1.2099    0.3751 N   0  0  0  0  0  0  0  0  0  0  0  0
    0.6281    2.0364   -0.3072 C   0  0  0  0  0  0  0  0  0  0  0  0
   -0.4716    1.5669   -0.9330 N   0  0  0  0  0  0  0  0  0  0  0  0
   -1.2120    2.5650   -1.4900 C   0  0  0  0  0  0  0  0  0  0  0  0
   -0.6845    3.8468   -1.3035 C   0  0  0  0  0  0  0  0  0  0  0  0
    0.7384    3.7074   -0.4154 S   0  0  0  0  0  0  0  0  0  0  0  0
   -2.4728    2.2864   -2.2277 C   0  0  0  0  0  0  0  0  0  0  0  0
   -2.9024    3.1654   -3.2414 C   0  0  0  0  0  0  0  0  0  0  0  0
   -4.0749    2.9120   -3.9543 C   0  0  0  0  0  0  0  0  0  0  0  0
   -4.8350    1.7799   -3.6703 C   0  0  0  0  0  0  0  0  0  0  0  0
   -4.4274    0.8952   -2.6716 C   0  0  0  0  0  0  0  0  0  0  0  0
   -3.2471    1.1359   -1.9384 C   0  0  0  0  0  0  0  0  0  0  0  0
   -2.8310    0.2676   -0.9138 O   0  0  0  0  0  0  0  0  0  0  0  0
   -3.4838   -0.9446   -0.5477 C   0  0  0  0  0  0  0  0  0  0  0  0
   -2.8373   -1.4924    0.5434 F   0  0  0  0  0  0  0  0  0  0  0  0
   -3.4328   -1.8438   -1.5975 F   0  0  0  0  0  0  0  0  0  0  0  0
    0.7948   -3.1516    3.2722 H   0  0  0  0  0  0  0  0  0  0  0  0
    0.2246   -1.5796    2.6345 H   0  0  0  0  0  0  0  0  0  0  0  0
    0.3523   -3.0161    1.5323 H   0  0  0  0  0  0  0  0  0  0  0  0
    3.1006   -3.6769    3.2319 H   0  0  0  0  0  0  0  0  0  0  0  0
    5.4286   -3.0758    2.7205 H   0  0  0  0  0  0  0  0  0  0  0  0
    5.9282   -1.1681    1.2273 H   0  0  0  0  0  0  0  0  0  0  0  0
    4.1056    0.1281    0.2150 H   0  0  0  0  0  0  0  0  0  0  0  0
    2.3916    1.6854    0.8292 H   0  0  0  0  0  0  0  0  0  0  0  0
   -1.1169    4.7782   -1.6424 H   0  0  0  0  0  0  0  0  0  0  0  0
   -2.3219    4.0404   -3.5023 H   0  0  0  0  0  0  0  0  0  0  0  0
   -4.3915    3.5932   -4.7337 H   0  0  0  0  0  0  0  0  0  0  0  0
   -5.7433    1.5863   -4.2264 H   0  0  0  0  0  0  0  0  0  0  0  0
   -5.0425    0.0287   -2.4739 H   0  0  0  0  0  0  0  0  0  0  0  0
   -4.5399   -0.7435   -0.2703 H   0  0  0  0  0  0  0  0  0  0  0  0
  1  2  1  0
  2  3  2  0
  3  4  1  0
  4  5  2  0
  5  6  1  0
  6  7  2  0
  7  8  1  0
  8  9  2  0
  8 10  1  0
 10 11  1  0
 11 12  2  0
 12 13  1  0
 13 14  2  0
 14 15  1  0
 13 16  1  0
 16 17  2  0
 17 18  1  0
 18 19  2  0
 19 20  1  0
 20 21  2  0
 21 22  1  0
 22 23  1  0
 23 24  1  0
 23 25  1  0
  2  7  1  0
 15 11  1  0
 16 21  1  0
  1 26  1  0
  1 27  1  0
  1 28  1  0
  3 29  1  0
  4 30  1  0
  5 31  1  0
  6 32  1  0
 10 33  1  0
 14 34  1  0
 17 35  1  0
 18 36  1  0
 19 37  1  0
 20 38  1  0
 23 39  1  0
M  END
$$$$
