
     RDKit          3D

 54 56  0  0  0  0  0  0  0  0999 V2000
   -3.7892    2.3641   -5.5954 C   0  0  0  0  0  0  0  0  0  0  0  0
   -2.4868    2.0806   -5.0951 O   0  0  0  0  0  0  0  0  0  0  0  0
   -2.1274    0.8847   -4.4565 C   0  0  0  0  0  0  0  0  0  0  0  0
   -3.0419   -0.1648   -4.2477 C   0  0  0  0  0  0  0  0  0  0  0  0
   -2.6354   -1.3369   -3.6037 C   0  0  0  0  0  0  0  0  0  0  0  0
   -1.3130   -1.4813   -3.1517 C   0  0  0  0  0  0  0  0  0  0  0  0
   -0.4013   -0.4343   -3.3712 C   0  0  0  0  0  0  0  0  0  0  0  0
   -0.8084    0.7370   -4.0151 C   0  0  0  0  0  0  0  0  0  0  0  0
   -0.8840   -2.7577   -2.4542 C   0  0  2  0  0  0  0  0  0  0  0  0
   -0.2058   -2.4526   -1.1884 N   0  0  0  0  0  0  0  0  0  0  0  0
   -0.9260   -1.9624   -0.0446 C   0  0  0  0  0  0  0  0  0  0  0  0
   -2.1299   -1.6100   -0.1764 O   0  0  0  0  0  0  0  0  0  0  0  0
   -0.2863   -1.9110    1.2959 C   0  0  0  0  0  0  0  0  0  0  0  0
    0.6544   -2.9002    1.6429 C   0  0  0  0  0  0  0  0  0  0  0  0
    1.2139   -2.9363    2.9219 C   0  0  0  0  0  0  0  0  0  0  0  0
    0.8336   -1.9976    3.8793 C   0  0  0  0  0  0  0  0  0  0  0  0
   -0.0951   -1.0081    3.5562 C   0  0  0  0  0  0  0  0  0  0  0  0
   -0.6434   -0.9394    2.2675 C   0  0  0  0  0  0  0  0  0  0  0  0
   -1.7675    0.4242    1.9032 S   0  0  0  0  0  0  0  0  0  0  0  0
   -0.4545    1.6657    1.6279 C   0  0  0  0  0  0  0  0  0  0  0  0
    0.3648    1.3280    0.4144 C   0  0  0  0  0  0  0  0  0  0  0  0
   -0.1843    1.3894   -0.7184 O   0  0  0  0  0  0  0  0  0  0  0  0
    1.7409    0.9158    0.5162 N   0  0  0  0  0  0  0  0  0  0  0  0
    2.4813    0.3726   -0.6082 C   0  0  0  0  0  0  0  0  0  0  0  0
    3.8093   -0.1008   -0.0353 C   0  0  0  0  0  0  0  0  0  0  0  0
    3.9568    0.6086    1.3067 C   0  0  0  0  0  0  0  0  0  0  0  0
    2.5466    1.0050    1.7230 C   0  0  0  0  0  0  0  0  0  0  0  0
    0.0093   -3.6171   -3.3633 C   0  0  0  0  0  0  0  0  0  0  0  0
    1.1870   -2.9602   -3.6747 F   0  0  0  0  0  0  0  0  0  0  0  0
   -0.6611   -3.9281   -4.5338 F   0  0  0  0  0  0  0  0  0  0  0  0
   -4.5293    2.3440   -4.7676 H   0  0  0  0  0  0  0  0  0  0  0  0
   -3.7908    3.3765   -6.0486 H   0  0  0  0  0  0  0  0  0  0  0  0
   -4.0678    1.6244   -6.3757 H   0  0  0  0  0  0  0  0  0  0  0  0
   -4.0677   -0.0857   -4.5792 H   0  0  0  0  0  0  0  0  0  0  0  0
   -3.3562   -2.1315   -3.4556 H   0  0  0  0  0  0  0  0  0  0  0  0
    0.6250   -0.5211   -3.0430 H   0  0  0  0  0  0  0  0  0  0  0  0
   -0.0941    1.5357   -4.1710 H   0  0  0  0  0  0  0  0  0  0  0  0
   -1.7801   -3.3754   -2.2194 H   0  0  0  0  0  0  0  0  0  0  0  0
    0.8225   -2.6190   -1.1078 H   0  0  0  0  0  0  0  0  0  0  0  0
    0.9340   -3.6733    0.9386 H   0  0  0  0  0  0  0  0  0  0  0  0
    1.9328   -3.7048    3.1761 H   0  0  0  0  0  0  0  0  0  0  0  0
    1.2630   -2.0339    4.8726 H   0  0  0  0  0  0  0  0  0  0  0  0
   -0.3704   -0.2753    4.3042 H   0  0  0  0  0  0  0  0  0  0  0  0
   -0.9392    2.6510    1.4662 H   0  0  0  0  0  0  0  0  0  0  0  0
    0.1652    1.7538    2.5415 H   0  0  0  0  0  0  0  0  0  0  0  0
    1.9324   -0.4788   -1.0578 H   0  0  0  0  0  0  0  0  0  0  0  0
    2.6413    1.1669   -1.3697 H   0  0  0  0  0  0  0  0  0  0  0  0
    4.6548    0.1374   -0.7165 H   0  0  0  0  0  0  0  0  0  0  0  0
    3.7706   -1.2008    0.1313 H   0  0  0  0  0  0  0  0  0  0  0  0
    4.4322   -0.0524    2.0636 H   0  0  0  0  0  0  0  0  0  0  0  0
    4.5782    1.5219    1.1760 H   0  0  0  0  0  0  0  0  0  0  0  0
    2.5374    2.0424    2.1222 H   0  0  0  0  0  0  0  0  0  0  0  0
    2.1615    0.2974    2.4865 H   0  0  0  0  0  0  0  0  0  0  0  0
    0.2616   -4.5647   -2.8419 H   0  0  0  0  0  0  0  0  0  0  0  0
  1  2  1  0
  2  3  1  0
  3  4  2  0
  4  5  1  0
  5  6  2  0
  6  7  1  0
  7  8  2  0
  6  9  1  0
  9 10  1  0
 10 11  1  0
 11 12  2  0
 11 13  1  0
 13 14  2  0
 14 15  1  0
 15 16  2  0
 16 17  1  0
 17 18  2  0
 18 19  1  0
 19 20  1  0
 20 21  1  0
 21 22  2  0
 21 23  1  0
 23 24  1  0
 24 25  1  0
 25 26  1  0
 26 27  1  0
  9 28  1  0
 28 29  1  0
 28 30  1  0
  3  8  1  0
 13 18  1  0
 27 23  1  0
  1 31  1  0
  1 32  1  0
  1 33  1  0
  4 34  1  0
  5 35  1  0
  7 36  1  0
  8 37  1  0
  9 38  1  1
 10 39  1  0
 14 40  1  0
 15 41  1  0
 16 42  1  0
 17 43  1  0
 20 44  1  0
 20 45  1  0
 24 46  1  0
 24 47  1  0
 25 48  1  0
 25 49  1  0
 26 50  1  0
 26 51  1  0
 27 52  1  0
 27 53  1  0
 28 54  1  0
M  END
$$$$
