
     RDKit          3D

 47 49  0  0  0  0  0  0  0  0999 V2000
   -2.2800    3.0531   -0.9832 C   0  0  0  0  0  0  0  0  0  0  0  0
   -1.9075    1.6296   -0.8842 N   0  0  0  0  0  0  0  0  0  0  0  0
   -3.0940    0.8034   -1.1672 C   0  0  0  0  0  0  0  0  0  0  0  0
   -1.3667    1.3074    0.4582 C   0  0  0  0  0  0  0  0  0  0  0  0
    0.1543    1.6232    0.5508 C   0  0  0  0  0  0  0  0  0  0  0  0
    1.0516    0.8234   -0.3885 C   0  0  0  0  0  0  0  0  0  0  0  0
    0.5973   -0.2658   -1.1650 C   0  0  0  0  0  0  0  0  0  0  0  0
    1.4769   -0.9569   -2.0034 C   0  0  0  0  0  0  0  0  0  0  0  0
    2.8163   -0.5750   -2.0842 C   0  0  0  0  0  0  0  0  0  0  0  0
    3.2802    0.5018   -1.3280 C   0  0  0  0  0  0  0  0  0  0  0  0
    2.4055    1.1980   -0.4895 C   0  0  0  0  0  0  0  0  0  0  0  0
    0.6937    1.5717    1.9380 N   0  0  0  0  0  0  0  0  0  0  0  0
    0.2733    2.7185    2.7576 C   0  0  0  0  0  0  0  0  0  0  0  0
    0.4167    0.0769    2.8147 S   0  0  0  0  0  0  0  0  0  0  0  0
    1.1508    0.1489    4.1247 O   0  0  0  0  0  0  0  0  0  0  0  0
   -1.0436   -0.0856    3.1267 O   0  0  0  0  0  0  0  0  0  0  0  0
    1.0759   -1.3118    1.9397 C   0  0  0  0  0  0  0  0  0  0  0  0
    2.4565   -1.4510    1.7878 C   0  0  0  0  0  0  0  0  0  0  0  0
    2.7895   -2.8421    0.8966 S   0  0  0  0  0  0  0  0  0  0  0  0
    1.1862   -3.2842    0.6978 C   0  0  0  0  0  0  0  0  0  0  0  0
    0.6941   -4.3863    0.0040 C   0  0  0  0  0  0  0  0  0  0  0  0
   -0.6931   -4.5673   -0.0566 C   0  0  0  0  0  0  0  0  0  0  0  0
   -1.5540   -3.6531    0.5745 C   0  0  0  0  0  0  0  0  0  0  0  0
   -1.0370   -2.5479    1.2704 C   0  0  0  0  0  0  0  0  0  0  0  0
    0.3541   -2.3614    1.3252 C   0  0  0  0  0  0  0  0  0  0  0  0
   -1.4000    3.7067   -0.8205 H   0  0  0  0  0  0  0  0  0  0  0  0
   -3.0684    3.3191   -0.2439 H   0  0  0  0  0  0  0  0  0  0  0  0
   -2.6570    3.2788   -2.0042 H   0  0  0  0  0  0  0  0  0  0  0  0
   -3.8891    0.9672   -0.4055 H   0  0  0  0  0  0  0  0  0  0  0  0
   -3.4997    1.0415   -2.1743 H   0  0  0  0  0  0  0  0  0  0  0  0
   -2.8220   -0.2737   -1.1770 H   0  0  0  0  0  0  0  0  0  0  0  0
   -1.5106    0.2328    0.6840 H   0  0  0  0  0  0  0  0  0  0  0  0
   -1.9296    1.8593    1.2413 H   0  0  0  0  0  0  0  0  0  0  0  0
    0.2718    2.6677    0.1931 H   0  0  0  0  0  0  0  0  0  0  0  0
   -0.4238   -0.6084   -1.1225 H   0  0  0  0  0  0  0  0  0  0  0  0
    1.1199   -1.7974   -2.5845 H   0  0  0  0  0  0  0  0  0  0  0  0
    3.4955   -1.1157   -2.7304 H   0  0  0  0  0  0  0  0  0  0  0  0
    4.3194    0.7974   -1.3901 H   0  0  0  0  0  0  0  0  0  0  0  0
    2.7860    2.0305    0.0896 H   0  0  0  0  0  0  0  0  0  0  0  0
   -0.7977    2.6471    3.0400 H   0  0  0  0  0  0  0  0  0  0  0  0
    0.4487    3.6746    2.2200 H   0  0  0  0  0  0  0  0  0  0  0  0
    0.8806    2.7572    3.6862 H   0  0  0  0  0  0  0  0  0  0  0  0
    3.2006   -0.7644    2.1687 H   0  0  0  0  0  0  0  0  0  0  0  0
    1.3648   -5.0839   -0.4805 H   0  0  0  0  0  0  0  0  0  0  0  0
   -1.1034   -5.4142   -0.5910 H   0  0  0  0  0  0  0  0  0  0  0  0
   -2.6248   -3.8019    0.5232 H   0  0  0  0  0  0  0  0  0  0  0  0
   -1.7288   -1.8716    1.7412 H   0  0  0  0  0  0  0  0  0  0  0  0
  1  2  1  0
  2  3  1  0
  2  4  1  0
  4  5  1  0
  5  6  1  0
  6  7  2  0
  7  8  1  0
  8  9  2  0
  9 10  1  0
 10 11  2  0
  5 12  1  0
 12 13  1  0
 12 14  1  0
 14 15  2  0
 14 16  2  0
 14 17  1  0
 17 18  2  0
 18 19  1  0
 19 20  1  0
 20 21  2  0
 21 22  1  0
 22 23  2  0
 23 24  1  0
 24 25  2  0
  6 11  1  0
 25 17  1  0
 20 25  1  0
  1 26  1  0
  1 27  1  0
  1 28  1  0
  3 29  1  0
  3 30  1  0
  3 31  1  0
  4 32  1  0
  4 33  1  0
  5 34  1  0
  7 35  1  0
  8 36  1  0
  9 37  1  0
 10 38  1  0
 11 39  1  0
 13 40  1  0
 13 41  1  0
 13 42  1  0
 18 43  1  0
 21 44  1  0
 22 45  1  0
 23 46  1  0
 24 47  1  0
M  END
$$$$
