
     RDKit          3D

 45 49  0  0  0  0  0  0  0  0999 V2000
    5.5974   -0.9290    3.3682 O   0  0  0  0  0  0  0  0  0  0  0  0
    4.4822   -0.5733    2.5998 C   0  0  0  0  0  0  0  0  0  0  0  0
    3.4428    0.1105    3.5002 C   0  0  0  0  0  0  0  0  0  0  0  0
    2.1286    0.4945    2.7825 C   0  0  0  0  0  0  0  0  0  0  0  0
    1.3116   -0.7363    2.2917 C   0  0  0  0  0  0  0  0  0  0  0  0
    1.2266   -0.6063    0.8360 N   0  0  0  0  0  0  0  0  0  0  0  0
    0.4730   -1.5161   -0.0272 C   0  0  0  0  0  0  0  0  0  0  0  0
   -0.9815   -1.0590   -0.1623 C   0  0  0  0  0  0  0  0  0  0  0  0
   -1.8995   -1.8383   -1.0931 C   0  0  0  0  0  0  0  0  0  0  0  0
   -2.6312   -0.5173   -0.9811 C   0  0  0  0  0  0  0  0  0  0  0  0
   -1.3095    0.2216   -0.9173 C   0  0  0  0  0  0  0  0  0  0  0  0
   -2.9763   -0.5456    0.4996 C   0  0  0  0  0  0  0  0  0  0  0  0
   -1.7250   -0.9541    1.0401 O   0  0  0  0  0  0  0  0  0  0  0  0
   -3.6603   -0.1512   -2.0038 C   0  0  0  0  0  0  0  0  0  0  0  0
   -4.9532   -0.5253   -1.9421 N   0  0  0  0  0  0  0  0  0  0  0  0
   -5.4940   -0.0550   -3.0542 N   0  0  0  0  0  0  0  0  0  0  0  0
   -4.5641    0.5662   -3.7590 N   0  0  0  0  0  0  0  0  0  0  0  0
   -3.3976    0.5220   -3.1398 N   0  0  0  0  0  0  0  0  0  0  0  0
    1.8469    0.6097    0.4465 C   0  0  0  0  0  0  0  0  0  0  0  0
    1.9725    1.1225   -0.8494 C   0  0  0  0  0  0  0  0  0  0  0  0
    2.6158    2.3588   -1.0195 C   0  0  0  0  0  0  0  0  0  0  0  0
    3.1231    3.0538    0.0945 C   0  0  0  0  0  0  0  0  0  0  0  0
    2.9967    2.5113    1.3829 C   0  0  0  0  0  0  0  0  0  0  0  0
    2.3589    1.2765    1.5276 C   0  0  0  0  0  0  0  0  0  0  0  0
    6.2370   -1.3600    2.7434 H   0  0  0  0  0  0  0  0  0  0  0  0
    4.0506   -1.4853    2.1337 H   0  0  0  0  0  0  0  0  0  0  0  0
    4.8004    0.1242    1.7936 H   0  0  0  0  0  0  0  0  0  0  0  0
    3.8968    1.0310    3.9281 H   0  0  0  0  0  0  0  0  0  0  0  0
    3.2006   -0.5619    4.3519 H   0  0  0  0  0  0  0  0  0  0  0  0
    1.5036    1.1007    3.4749 H   0  0  0  0  0  0  0  0  0  0  0  0
    1.7832   -1.7047    2.5618 H   0  0  0  0  0  0  0  0  0  0  0  0
    0.2913   -0.7076    2.7298 H   0  0  0  0  0  0  0  0  0  0  0  0
    0.9530   -1.5825   -1.0261 H   0  0  0  0  0  0  0  0  0  0  0  0
    0.4853   -2.5355    0.4144 H   0  0  0  0  0  0  0  0  0  0  0  0
   -1.4656   -2.0300   -2.1031 H   0  0  0  0  0  0  0  0  0  0  0  0
   -2.3968   -2.7281   -0.6396 H   0  0  0  0  0  0  0  0  0  0  0  0
   -1.2837    1.1553   -0.3074 H   0  0  0  0  0  0  0  0  0  0  0  0
   -0.8008    0.3118   -1.9055 H   0  0  0  0  0  0  0  0  0  0  0  0
   -3.7704   -1.2889    0.7358 H   0  0  0  0  0  0  0  0  0  0  0  0
   -3.2664    0.4573    0.8855 H   0  0  0  0  0  0  0  0  0  0  0  0
   -4.7276    1.0239   -4.6825 H   0  0  0  0  0  0  0  0  0  0  0  0
    1.5926    0.5877   -1.7080 H   0  0  0  0  0  0  0  0  0  0  0  0
    2.7230    2.7784   -2.0113 H   0  0  0  0  0  0  0  0  0  0  0  0
    3.6173    4.0067   -0.0432 H   0  0  0  0  0  0  0  0  0  0  0  0
    3.3921    3.0352    2.2432 H   0  0  0  0  0  0  0  0  0  0  0  0
  1  2  1  0
  2  3  1  0
  3  4  1  0
  4  5  1  0
  5  6  1  0
  6  7  1  0
  7  8  1  0
  8  9  1  0
  9 10  1  0
 10 11  1  0
 10 12  1  0
 12 13  1  0
 10 14  1  0
 14 15  1  0
 15 16  2  0
 16 17  1  0
 17 18  1  0
  6 19  1  0
 19 20  2  0
 20 21  1  0
 21 22  2  0
 22 23  1  0
 23 24  2  0
 24  4  1  0
 11  8  1  0
 13  8  1  0
 14 18  2  0
 19 24  1  0
  1 25  1  0
  2 26  1  0
  2 27  1  0
  3 28  1  0
  3 29  1  0
  4 30  1  0
  5 31  1  0
  5 32  1  0
  7 33  1  0
  7 34  1  0
  9 35  1  0
  9 36  1  0
 11 37  1  0
 11 38  1  0
 12 39  1  0
 12 40  1  0
 17 41  1  0
 20 42  1  0
 21 43  1  0
 22 44  1  0
 23 45  1  0
M  END
$$$$
