
     RDKit          3D

 38 40  0  0  0  0  0  0  0  0999 V2000
   -4.8007    4.2528    0.2788 N   0  0  0  0  0  0  0  0  0  0  0  0
   -3.8421    3.7781    0.7192 C   0  0  0  0  0  0  0  0  0  0  0  0
   -2.6494    3.1902    1.2643 C   0  0  0  0  0  0  0  0  0  0  0  0
   -2.2595    1.9021    0.8875 C   0  0  0  0  0  0  0  0  0  0  0  0
   -1.0734    1.3687    1.4245 C   0  0  0  0  0  0  0  0  0  0  0  0
   -0.3586    2.1253    2.3045 N   0  0  0  0  0  0  0  0  0  0  0  0
   -0.7606    3.3704    2.6664 C   0  0  0  0  0  0  0  0  0  0  0  0
   -1.8952    3.8977    2.1427 N   0  0  0  0  0  0  0  0  0  0  0  0
   -0.5936    0.0501    1.0591 N   0  0  0  0  0  0  0  0  0  0  0  0
   -0.9730   -0.5888   -0.2142 C   0  0  0  0  0  0  0  0  0  0  0  0
   -0.4137    0.2139   -1.4094 C   0  0  0  0  0  0  0  0  0  0  0  0
   -0.4824   -0.4717   -2.7959 C   0  0  1  0  0  0  0  0  0  0  0  0
    0.2534   -1.8069   -2.9094 C   0  0  0  0  0  0  0  0  0  0  0  0
   -1.0661   -2.4954   -3.2400 C   0  0  2  0  0  0  0  0  0  0  0  0
   -1.0756   -3.0164   -4.5230 F   0  0  0  0  0  0  0  0  0  0  0  0
   -1.7990   -1.1609   -3.1583 C   0  0  0  0  0  0  0  0  0  0  0  0
    0.3731   -0.6420    1.9249 C   0  0  0  0  0  0  0  0  0  0  0  0
    1.7497   -0.5454    1.3469 C   0  0  0  0  0  0  0  0  0  0  0  0
    2.5617    0.5784    1.2820 C   0  0  0  0  0  0  0  0  0  0  0  0
    3.7664    0.3486    0.5853 C   0  0  0  0  0  0  0  0  0  0  0  0
    3.9419   -0.9019    0.0831 N   0  0  0  0  0  0  0  0  0  0  0  0
    2.5702   -1.7334    0.5158 S   0  0  0  0  0  0  0  0  0  0  0  0
   -2.8698    1.3458    0.1906 H   0  0  0  0  0  0  0  0  0  0  0  0
   -0.1682    3.9484    3.3626 H   0  0  0  0  0  0  0  0  0  0  0  0
   -2.0755   -0.6780   -0.2650 H   0  0  0  0  0  0  0  0  0  0  0  0
   -0.5868   -1.6275   -0.2425 H   0  0  0  0  0  0  0  0  0  0  0  0
   -0.9599    1.1777   -1.4826 H   0  0  0  0  0  0  0  0  0  0  0  0
    0.6513    0.4604   -1.2084 H   0  0  0  0  0  0  0  0  0  0  0  0
   -0.1598    0.2283   -3.5993 H   0  0  0  0  0  0  0  0  0  0  0  0
    0.9642   -1.8199   -3.7643 H   0  0  0  0  0  0  0  0  0  0  0  0
    0.7116   -2.1773   -1.9686 H   0  0  0  0  0  0  0  0  0  0  0  0
   -1.3894   -3.2246   -2.4659 H   0  0  0  0  0  0  0  0  0  0  0  0
   -2.1861   -0.8267   -4.1465 H   0  0  0  0  0  0  0  0  0  0  0  0
   -2.5780   -1.1508   -2.3704 H   0  0  0  0  0  0  0  0  0  0  0  0
    0.0862   -1.7105    2.0316 H   0  0  0  0  0  0  0  0  0  0  0  0
    0.3738   -0.2140    2.9503 H   0  0  0  0  0  0  0  0  0  0  0  0
    2.2988    1.5360    1.7116 H   0  0  0  0  0  0  0  0  0  0  0  0
    4.5091    1.1224    0.4468 H   0  0  0  0  0  0  0  0  0  0  0  0
  1  2  3  0
  2  3  1  0
  3  4  2  0
  4  5  1  0
  5  6  2  0
  6  7  1  0
  7  8  2  0
  5  9  1  0
  9 10  1  0
 10 11  1  0
 11 12  1  0
 12 13  1  0
 13 14  1  0
 14 15  1  0
 14 16  1  0
  9 17  1  0
 17 18  1  0
 18 19  2  0
 19 20  1  0
 20 21  2  0
 21 22  1  0
  3  8  1  0
 16 12  1  0
 22 18  1  0
  4 23  1  0
  7 24  1  0
 10 25  1  0
 10 26  1  0
 11 27  1  0
 11 28  1  0
 12 29  1  6
 13 30  1  0
 13 31  1  0
 14 32  1  1
 16 33  1  0
 16 34  1  0
 17 35  1  0
 17 36  1  0
 19 37  1  0
 20 38  1  0
M  END
$$$$
