
     RDKit          3D

 51 56  0  0  0  0  0  0  0  0999 V2000
   -3.7172   -4.1801   -3.9591 O   0  0  0  0  0  0  0  0  0  0  0  0
   -3.5095   -3.5005   -2.9190 C   0  0  0  0  0  0  0  0  0  0  0  0
   -3.3547   -2.1427   -2.9864 N   0  0  0  0  0  0  0  0  0  0  0  0
   -3.1276   -1.3916   -1.8535 C   0  0  0  0  0  0  0  0  0  0  0  0
   -2.9265    0.0929   -1.9490 C   0  0  0  0  0  0  0  0  0  0  0  0
   -1.5193    0.4344   -1.6635 N   0  0  0  0  0  0  0  0  0  0  0  0
   -0.6533    0.1544   -2.8274 C   0  0  0  0  0  0  0  0  0  0  0  0
    0.8325    0.2631   -2.4345 C   0  0  0  0  0  0  0  0  0  0  0  0
    1.0469    1.1684   -1.2039 C   0  0  0  0  0  0  0  0  0  0  0  0
    0.0601    2.3472   -1.2196 C   0  0  0  0  0  0  0  0  0  0  0  0
   -1.4053    1.8559   -1.2613 C   0  0  0  0  0  0  0  0  0  0  0  0
    2.4733    1.6433   -1.1387 C   0  0  0  0  0  0  0  0  0  0  0  0
    2.9565    2.6649   -1.8980 N   0  0  0  0  0  0  0  0  0  0  0  0
    4.2582    2.6941   -1.5622 C   0  0  0  0  0  0  0  0  0  0  0  0
    5.2428    3.5560   -2.0403 C   0  0  0  0  0  0  0  0  0  0  0  0
    6.5517    3.3903   -1.5476 C   0  0  0  0  0  0  0  0  0  0  0  0
    6.8387    2.3771   -0.6030 C   0  0  0  0  0  0  0  0  0  0  0  0
    5.8188    1.5222   -0.1429 C   0  0  0  0  0  0  0  0  0  0  0  0
    4.5367    1.7197   -0.6506 C   0  0  0  0  0  0  0  0  0  0  0  0
    3.4180    1.0399   -0.3741 N   0  0  0  0  0  0  0  0  0  0  0  0
   -3.0434   -1.9967   -0.6288 N   0  0  0  0  0  0  0  0  0  0  0  0
   -3.1982   -3.3388   -0.5688 C   0  0  0  0  0  0  0  0  0  0  0  0
   -3.1625   -4.1940    0.4985 C   0  0  0  0  0  0  0  0  0  0  0  0
   -2.9649   -3.9946    1.8615 C   0  0  0  0  0  0  0  0  0  0  0  0
   -2.9912   -5.1303    2.6919 C   0  0  0  0  0  0  0  0  0  0  0  0
   -3.2105   -6.4166    2.1447 C   0  0  0  0  0  0  0  0  0  0  0  0
   -3.4077   -6.5836    0.7599 C   0  0  0  0  0  0  0  0  0  0  0  0
   -3.3778   -5.4465   -0.0441 C   0  0  0  0  0  0  0  0  0  0  0  0
   -3.5364   -5.3817   -1.3552 O   0  0  0  0  0  0  0  0  0  0  0  0
   -3.4275   -4.1064   -1.6749 C   0  0  0  0  0  0  0  0  0  0  0  0
   -3.4058   -1.6731   -3.9190 H   0  0  0  0  0  0  0  0  0  0  0  0
   -3.6007    0.5623   -1.1977 H   0  0  0  0  0  0  0  0  0  0  0  0
   -3.2362    0.4755   -2.9480 H   0  0  0  0  0  0  0  0  0  0  0  0
   -0.8343   -0.8712   -3.2169 H   0  0  0  0  0  0  0  0  0  0  0  0
   -0.8752    0.8695   -3.6530 H   0  0  0  0  0  0  0  0  0  0  0  0
    1.4002    0.6499   -3.3099 H   0  0  0  0  0  0  0  0  0  0  0  0
    1.2285   -0.7496   -2.2009 H   0  0  0  0  0  0  0  0  0  0  0  0
    0.8403    0.5696   -0.2877 H   0  0  0  0  0  0  0  0  0  0  0  0
    0.2149    2.9815   -0.3185 H   0  0  0  0  0  0  0  0  0  0  0  0
    0.2540    2.9784   -2.1158 H   0  0  0  0  0  0  0  0  0  0  0  0
   -1.9845    2.5107   -1.9530 H   0  0  0  0  0  0  0  0  0  0  0  0
   -1.8431    1.9713   -0.2451 H   0  0  0  0  0  0  0  0  0  0  0  0
    5.0112    4.3261   -2.7649 H   0  0  0  0  0  0  0  0  0  0  0  0
    7.3430    4.0410   -1.8953 H   0  0  0  0  0  0  0  0  0  0  0  0
    7.8486    2.2568   -0.2329 H   0  0  0  0  0  0  0  0  0  0  0  0
    6.0246    0.7405    0.5768 H   0  0  0  0  0  0  0  0  0  0  0  0
    3.3032    0.2271    0.2719 H   0  0  0  0  0  0  0  0  0  0  0  0
   -2.7978   -3.0054    2.2683 H   0  0  0  0  0  0  0  0  0  0  0  0
   -2.8419   -5.0186    3.7582 H   0  0  0  0  0  0  0  0  0  0  0  0
   -3.2278   -7.2808    2.7959 H   0  0  0  0  0  0  0  0  0  0  0  0
   -3.5756   -7.5643    0.3339 H   0  0  0  0  0  0  0  0  0  0  0  0
  1  2  2  0
  2  3  1  0
  3  4  1  0
  4  5  1  0
  5  6  1  0
  6  7  1  0
  7  8  1  0
  8  9  1  0
  9 10  1  0
 10 11  1  0
  9 12  1  0
 12 13  2  0
 13 14  1  0
 14 15  2  0
 15 16  1  0
 16 17  2  0
 17 18  1  0
 18 19  2  0
 19 20  1  0
  4 21  2  0
 21 22  1  0
 22 23  1  0
 23 24  2  0
 24 25  1  0
 25 26  2  0
 26 27  1  0
 27 28  2  0
 28 29  1  0
 29 30  1  0
 30  2  1  0
 11  6  1  0
 20 12  1  0
 14 19  1  0
 22 30  2  0
 28 23  1  0
  3 31  1  0
  5 32  1  0
  5 33  1  0
  7 34  1  0
  7 35  1  0
  8 36  1  0
  8 37  1  0
  9 38  1  0
 10 39  1  0
 10 40  1  0
 11 41  1  0
 11 42  1  0
 15 43  1  0
 16 44  1  0
 17 45  1  0
 18 46  1  0
 20 47  1  0
 24 48  1  0
 25 49  1  0
 26 50  1  0
 27 51  1  0
M  END
$$$$
