
     RDKit          3D

 46 48  0  0  0  0  0  0  0  0999 V2000
   -2.2420    3.9887    0.6735 C   0  0  0  0  0  0  0  0  0  0  0  0
   -2.1555    2.6435    1.3366 C   0  0  0  0  0  0  0  0  0  0  0  0
   -3.2914    1.8251    1.4226 C   0  0  0  0  0  0  0  0  0  0  0  0
   -3.2186    0.5848    2.0634 C   0  0  0  0  0  0  0  0  0  0  0  0
   -2.0169    0.1596    2.6382 C   0  0  0  0  0  0  0  0  0  0  0  0
   -0.8774    0.9782    2.5822 C   0  0  0  0  0  0  0  0  0  0  0  0
   -0.9534    2.2202    1.9271 C   0  0  0  0  0  0  0  0  0  0  0  0
    0.4353    0.4942    3.1473 C   0  0  0  0  0  0  0  0  0  0  0  0
    1.3101   -0.1358    2.0455 C   0  0  0  0  0  0  0  0  0  0  0  0
    2.6739   -0.5800    2.5929 C   0  0  0  0  0  0  0  0  0  0  0  0
    2.5193   -1.5893    3.5552 O   0  0  0  0  0  0  0  0  0  0  0  0
    0.6171   -1.2809    1.4438 N   0  0  0  0  0  0  0  0  0  0  0  0
    0.3424   -1.3748    0.0369 C   0  0  0  0  0  0  0  0  0  0  0  0
    0.9039   -0.5881   -0.7732 O   0  0  0  0  0  0  0  0  0  0  0  0
   -0.6190   -2.3755   -0.4626 C   0  0  0  0  0  0  0  0  0  0  0  0
   -1.6856   -2.8966    0.2430 C   0  0  0  0  0  0  0  0  0  0  0  0
   -2.4161   -3.6583   -0.5893 N   0  0  0  0  0  0  0  0  0  0  0  0
   -1.8707   -3.6578   -1.7956 N   0  0  0  0  0  0  0  0  0  0  0  0
   -0.7671   -2.8839   -1.7510 C   0  0  0  0  0  0  0  0  0  0  0  0
    0.1210   -2.6860   -2.9161 C   0  0  0  0  0  0  0  0  0  0  0  0
    1.5191   -2.6939   -2.7686 C   0  0  0  0  0  0  0  0  0  0  0  0
    2.3466   -2.5407   -3.8850 C   0  0  0  0  0  0  0  0  0  0  0  0
    1.7890   -2.3963   -5.1588 C   0  0  0  0  0  0  0  0  0  0  0  0
    0.4001   -2.4068   -5.3189 C   0  0  0  0  0  0  0  0  0  0  0  0
   -0.3003   -2.2353   -6.9177 Cl  0  0  0  0  0  0  0  0  0  0  0  0
   -0.4321   -2.5594   -4.2016 C   0  0  0  0  0  0  0  0  0  0  0  0
   -2.5170    4.7563    1.4317 H   0  0  0  0  0  0  0  0  0  0  0  0
   -1.2650    4.2599    0.2161 H   0  0  0  0  0  0  0  0  0  0  0  0
   -3.0103    3.9844   -0.1342 H   0  0  0  0  0  0  0  0  0  0  0  0
   -4.2302    2.1444    0.9903 H   0  0  0  0  0  0  0  0  0  0  0  0
   -4.0946   -0.0488    2.1145 H   0  0  0  0  0  0  0  0  0  0  0  0
   -1.9732   -0.8092    3.1222 H   0  0  0  0  0  0  0  0  0  0  0  0
   -0.0752    2.8519    1.8703 H   0  0  0  0  0  0  0  0  0  0  0  0
    0.9742    1.3521    3.6072 H   0  0  0  0  0  0  0  0  0  0  0  0
    0.2511   -0.2456    3.9578 H   0  0  0  0  0  0  0  0  0  0  0  0
    1.5026    0.6472    1.2775 H   0  0  0  0  0  0  0  0  0  0  0  0
    3.2931   -0.9610    1.7476 H   0  0  0  0  0  0  0  0  0  0  0  0
    3.1967    0.2937    3.0439 H   0  0  0  0  0  0  0  0  0  0  0  0
    3.4355   -1.8424    3.8403 H   0  0  0  0  0  0  0  0  0  0  0  0
    0.3024   -2.0558    2.0715 H   0  0  0  0  0  0  0  0  0  0  0  0
   -1.9402   -2.7034    1.2769 H   0  0  0  0  0  0  0  0  0  0  0  0
   -3.2876   -4.1752   -0.3397 H   0  0  0  0  0  0  0  0  0  0  0  0
    1.9710   -2.8389   -1.7947 H   0  0  0  0  0  0  0  0  0  0  0  0
    3.4224   -2.5454   -3.7638 H   0  0  0  0  0  0  0  0  0  0  0  0
    2.4379   -2.2859   -6.0198 H   0  0  0  0  0  0  0  0  0  0  0  0
   -1.5069   -2.5691   -4.3349 H   0  0  0  0  0  0  0  0  0  0  0  0
  1  2  1  0
  2  3  2  0
  3  4  1  0
  4  5  2  0
  5  6  1  0
  6  7  2  0
  6  8  1  0
  8  9  1  0
  9 10  1  0
 10 11  1  0
  9 12  1  0
 12 13  1  0
 13 14  2  0
 13 15  1  0
 15 16  2  0
 16 17  1  0
 17 18  1  0
 18 19  2  0
 19 20  1  0
 20 21  2  0
 21 22  1  0
 22 23  2  0
 23 24  1  0
 24 25  1  0
 24 26  2  0
  2  7  1  0
 19 15  1  0
 20 26  1  0
  1 27  1  0
  1 28  1  0
  1 29  1  0
  3 30  1  0
  4 31  1  0
  5 32  1  0
  7 33  1  0
  8 34  1  0
  8 35  1  0
  9 36  1  0
 10 37  1  0
 10 38  1  0
 11 39  1  0
 12 40  1  0
 16 41  1  0
 17 42  1  0
 21 43  1  0
 22 44  1  0
 23 45  1  0
 26 46  1  0
M  END
$$$$
