
     RDKit          3D

 46 48  0  0  0  0  0  0  0  0999 V2000
    1.4033   -4.4152   -1.9826 C   0  0  0  0  0  0  0  0  0  0  0  0
    0.8620   -3.3287   -2.7257 O   0  0  0  0  0  0  0  0  0  0  0  0
    1.6300   -2.3194   -3.3251 C   0  0  0  0  0  0  0  0  0  0  0  0
    3.0378   -2.3359   -3.3170 C   0  0  0  0  0  0  0  0  0  0  0  0
    3.7561   -1.2943   -3.9101 C   0  0  0  0  0  0  0  0  0  0  0  0
    3.0824   -0.2274   -4.5088 C   0  0  0  0  0  0  0  0  0  0  0  0
    1.6799   -0.2020   -4.5322 C   0  0  0  0  0  0  0  0  0  0  0  0
    0.9619   -1.2548   -3.9416 C   0  0  0  0  0  0  0  0  0  0  0  0
    0.9513    0.9919   -5.0972 C   0  0  0  0  0  0  0  0  0  0  0  0
    0.8711    2.1415   -4.0826 C   0  0  0  0  0  0  0  0  0  0  0  0
    0.0929    1.7428   -2.8614 C   0  0  0  0  0  0  0  0  0  0  0  0
   -1.1631    1.8487   -2.8710 O   0  0  0  0  0  0  0  0  0  0  0  0
    0.7730    1.1504   -1.7422 N   0  0  0  0  0  0  0  0  0  0  0  0
    0.0990    0.5430   -0.6288 C   0  0  0  0  0  0  0  0  0  0  0  0
    0.5921   -0.6582   -0.0995 C   0  0  0  0  0  0  0  0  0  0  0  0
   -0.0412   -1.2658    0.9877 C   0  0  0  0  0  0  0  0  0  0  0  0
   -1.1772   -0.6813    1.5657 C   0  0  0  0  0  0  0  0  0  0  0  0
   -1.6425    0.5486    1.0674 C   0  0  0  0  0  0  0  0  0  0  0  0
   -1.0104    1.1548   -0.0225 C   0  0  0  0  0  0  0  0  0  0  0  0
   -1.7943   -1.3115    2.7010 N   0  0  0  0  0  0  0  0  0  0  0  0
   -3.2036   -1.2868    2.9705 C   0  0  0  0  0  0  0  0  0  0  0  0
   -4.0917   -0.9067    2.0103 N   0  0  0  0  0  0  0  0  0  0  0  0
   -5.4288   -0.9115    2.2499 C   0  0  0  0  0  0  0  0  0  0  0  0
   -5.9105   -1.3197    3.4924 C   0  0  0  0  0  0  0  0  0  0  0  0
   -4.9912   -1.7194    4.4615 C   0  0  0  0  0  0  0  0  0  0  0  0
   -3.6616   -1.6999    4.1833 N   0  0  0  0  0  0  0  0  0  0  0  0
    2.0578   -5.0336   -2.6326 H   0  0  0  0  0  0  0  0  0  0  0  0
    0.5721   -5.0492   -1.6094 H   0  0  0  0  0  0  0  0  0  0  0  0
    1.9785   -4.0313   -1.1131 H   0  0  0  0  0  0  0  0  0  0  0  0
    3.5851   -3.1444   -2.8527 H   0  0  0  0  0  0  0  0  0  0  0  0
    4.8384   -1.3086   -3.8951 H   0  0  0  0  0  0  0  0  0  0  0  0
    3.6523    0.5841   -4.9436 H   0  0  0  0  0  0  0  0  0  0  0  0
   -0.1212   -1.2342   -3.9319 H   0  0  0  0  0  0  0  0  0  0  0  0
   -0.0743    0.7038   -5.4172 H   0  0  0  0  0  0  0  0  0  0  0  0
    1.4818    1.3502   -6.0060 H   0  0  0  0  0  0  0  0  0  0  0  0
    0.3761    3.0129   -4.5626 H   0  0  0  0  0  0  0  0  0  0  0  0
    1.8949    2.4617   -3.7908 H   0  0  0  0  0  0  0  0  0  0  0  0
    1.8006    0.9821   -1.8344 H   0  0  0  0  0  0  0  0  0  0  0  0
    1.4627   -1.1295   -0.5378 H   0  0  0  0  0  0  0  0  0  0  0  0
    0.3486   -2.1983    1.3761 H   0  0  0  0  0  0  0  0  0  0  0  0
   -2.4716    1.0580    1.5392 H   0  0  0  0  0  0  0  0  0  0  0  0
   -1.3692    2.1151   -0.3686 H   0  0  0  0  0  0  0  0  0  0  0  0
   -1.1924   -1.8868    3.3332 H   0  0  0  0  0  0  0  0  0  0  0  0
   -6.1165   -0.6023    1.4747 H   0  0  0  0  0  0  0  0  0  0  0  0
   -6.9729   -1.3311    3.6983 H   0  0  0  0  0  0  0  0  0  0  0  0
   -5.3336   -2.0454    5.4346 H   0  0  0  0  0  0  0  0  0  0  0  0
  1  2  1  0
  2  3  1  0
  3  4  2  0
  4  5  1  0
  5  6  2  0
  6  7  1  0
  7  8  2  0
  7  9  1  0
  9 10  1  0
 10 11  1  0
 11 12  2  0
 11 13  1  0
 13 14  1  0
 14 15  2  0
 15 16  1  0
 16 17  2  0
 17 18  1  0
 18 19  2  0
 17 20  1  0
 20 21  1  0
 21 22  2  0
 22 23  1  0
 23 24  2  0
 24 25  1  0
 25 26  2  0
  3  8  1  0
 14 19  1  0
 21 26  1  0
  1 27  1  0
  1 28  1  0
  1 29  1  0
  4 30  1  0
  5 31  1  0
  6 32  1  0
  8 33  1  0
  9 34  1  0
  9 35  1  0
 10 36  1  0
 10 37  1  0
 13 38  1  0
 15 39  1  0
 16 40  1  0
 18 41  1  0
 19 42  1  0
 20 43  1  0
 23 44  1  0
 24 45  1  0
 25 46  1  0
M  END
$$$$
