
     RDKit          3D

 47 50  0  0  0  0  0  0  0  0999 V2000
    2.5664    0.2195    2.5096 O   0  0  0  0  0  0  0  0  0  0  0  0
    1.6413   -0.3098    1.8350 C   0  0  0  0  0  0  0  0  0  0  0  0
    1.4658    0.0750    0.4154 C   0  0  0  0  0  0  0  0  0  0  0  0
    0.2025    0.0024   -0.1954 C   0  0  0  0  0  0  0  0  0  0  0  0
    0.0391    0.3762   -1.5319 C   0  0  0  0  0  0  0  0  0  0  0  0
    1.1314    0.8473   -2.2764 C   0  0  0  0  0  0  0  0  0  0  0  0
    2.3940    0.9181   -1.6689 C   0  0  0  0  0  0  0  0  0  0  0  0
    2.5585    0.5454   -0.3318 C   0  0  0  0  0  0  0  0  0  0  0  0
    0.9730    1.2183   -3.6564 N   0  0  0  0  0  0  0  0  0  0  0  0
    1.7942    0.8817   -4.6832 C   0  0  0  0  0  0  0  0  0  0  0  0
    1.3818    1.3663   -5.8831 N   0  0  0  0  0  0  0  0  0  0  0  0
    0.2577    2.0370   -5.5706 C   0  0  0  0  0  0  0  0  0  0  0  0
   -0.5628    2.7610   -6.4325 C   0  0  0  0  0  0  0  0  0  0  0  0
   -1.6710    3.4269   -5.8772 C   0  0  0  0  0  0  0  0  0  0  0  0
   -1.9212    3.3633   -4.4880 C   0  0  0  0  0  0  0  0  0  0  0  0
   -1.0712    2.6259   -3.6430 C   0  0  0  0  0  0  0  0  0  0  0  0
    0.0057    1.9557   -4.2309 C   0  0  0  0  0  0  0  0  0  0  0  0
    0.7616   -1.2566    2.4673 N   0  0  0  0  0  0  0  0  0  0  0  0
    0.5141   -2.5634    1.8426 C   0  0  0  0  0  0  0  0  0  0  0  0
   -0.9659   -2.9704    1.9563 C   0  0  0  0  0  0  0  0  0  0  0  0
   -1.6760   -2.3970    3.2003 C   0  0  0  0  0  0  0  0  0  0  0  0
   -0.6954   -2.0633    4.3457 C   0  0  0  0  0  0  0  0  0  0  0  0
   -0.0099   -3.2437    4.6991 O   0  0  0  0  0  0  0  0  0  0  0  0
   -1.4726   -1.5501    5.5823 C   0  0  0  0  0  0  0  0  0  0  0  0
   -2.2539   -0.4307    5.2605 O   0  0  0  0  0  0  0  0  0  0  0  0
    0.3089   -0.9903    3.8413 C   0  0  0  0  0  0  0  0  0  0  0  0
   -0.6615   -0.3350    0.3623 H   0  0  0  0  0  0  0  0  0  0  0  0
   -0.9366    0.2813   -1.9902 H   0  0  0  0  0  0  0  0  0  0  0  0
    3.2493    1.2752   -2.2286 H   0  0  0  0  0  0  0  0  0  0  0  0
    3.5427    0.6141    0.1149 H   0  0  0  0  0  0  0  0  0  0  0  0
    2.6837    0.2758   -4.5667 H   0  0  0  0  0  0  0  0  0  0  0  0
   -0.3512    2.8172   -7.4924 H   0  0  0  0  0  0  0  0  0  0  0  0
   -2.3290    4.0006   -6.5167 H   0  0  0  0  0  0  0  0  0  0  0  0
   -2.7674    3.8925   -4.0695 H   0  0  0  0  0  0  0  0  0  0  0  0
   -1.2461    2.6019   -2.5764 H   0  0  0  0  0  0  0  0  0  0  0  0
    1.1476   -3.3231    2.3491 H   0  0  0  0  0  0  0  0  0  0  0  0
    0.8128   -2.5649    0.7723 H   0  0  0  0  0  0  0  0  0  0  0  0
   -1.0250   -4.0805    1.9780 H   0  0  0  0  0  0  0  0  0  0  0  0
   -1.5106   -2.6347    1.0470 H   0  0  0  0  0  0  0  0  0  0  0  0
   -2.2190   -1.4735    2.8987 H   0  0  0  0  0  0  0  0  0  0  0  0
   -2.4382   -3.1270    3.5516 H   0  0  0  0  0  0  0  0  0  0  0  0
    0.6280   -3.0239    5.4279 H   0  0  0  0  0  0  0  0  0  0  0  0
   -2.1301   -2.3625    5.9667 H   0  0  0  0  0  0  0  0  0  0  0  0
   -0.7531   -1.2792    6.3878 H   0  0  0  0  0  0  0  0  0  0  0  0
   -2.7172   -0.1677    6.0978 H   0  0  0  0  0  0  0  0  0  0  0  0
   -0.1791    0.0088    3.8514 H   0  0  0  0  0  0  0  0  0  0  0  0
    1.1866   -0.9366    4.5217 H   0  0  0  0  0  0  0  0  0  0  0  0
  1  2  2  0
  2  3  1  0
  3  4  2  0
  4  5  1  0
  5  6  2  0
  6  7  1  0
  7  8  2  0
  6  9  1  0
  9 10  1  0
 10 11  2  0
 11 12  1  0
 12 13  2  0
 13 14  1  0
 14 15  2  0
 15 16  1  0
 16 17  2  0
  2 18  1  0
 18 19  1  0
 19 20  1  0
 20 21  1  0
 21 22  1  0
 22 23  1  0
 22 24  1  0
 24 25  1  0
 22 26  1  0
  3  8  1  0
 17  9  1  0
 12 17  1  0
 26 18  1  0
  4 27  1  0
  5 28  1  0
  7 29  1  0
  8 30  1  0
 10 31  1  0
 13 32  1  0
 14 33  1  0
 15 34  1  0
 16 35  1  0
 19 36  1  0
 19 37  1  0
 20 38  1  0
 20 39  1  0
 21 40  1  0
 21 41  1  0
 23 42  1  0
 24 43  1  0
 24 44  1  0
 25 45  1  0
 26 46  1  0
 26 47  1  0
M  END
$$$$
