
     RDKit          3D

 45 47  0  0  0  0  0  0  0  0999 V2000
   -0.7082   -4.4742    0.4803 C   0  0  0  0  0  0  0  0  0  0  0  0
   -0.2724   -3.5300   -0.6451 C   0  0  0  0  0  0  0  0  0  0  0  0
   -0.0056   -2.1921   -0.0981 N   0  0  0  0  0  0  0  0  0  0  0  0
    1.2709   -1.5414   -0.2123 C   0  0  0  0  0  0  0  0  0  0  0  0
    2.2927   -2.2150   -0.5185 O   0  0  0  0  0  0  0  0  0  0  0  0
    1.4080   -0.0875    0.0423 C   0  0  0  0  0  0  0  0  0  0  0  0
    2.6556    0.4527    0.4003 C   0  0  0  0  0  0  0  0  0  0  0  0
    2.7958    1.8247    0.6287 C   0  0  0  0  0  0  0  0  0  0  0  0
    1.6973    2.6806    0.5057 C   0  0  0  0  0  0  0  0  0  0  0  0
    0.4541    2.1508    0.1200 C   0  0  0  0  0  0  0  0  0  0  0  0
    0.3101    0.7791   -0.1058 C   0  0  0  0  0  0  0  0  0  0  0  0
    1.8853    4.0540    0.7211 O   0  0  0  0  0  0  0  0  0  0  0  0
    0.9064    4.9452    1.1855 C   0  0  0  0  0  0  0  0  0  0  0  0
    0.9599    6.2812    0.7684 C   0  0  0  0  0  0  0  0  0  0  0  0
    0.0080    7.2016    1.2180 C   0  0  0  0  0  0  0  0  0  0  0  0
   -0.9981    6.7946    2.1006 C   0  0  0  0  0  0  0  0  0  0  0  0
   -2.1963    7.9497    2.6568 Cl  0  0  0  0  0  0  0  0  0  0  0  0
   -1.0470    5.4670    2.5387 C   0  0  0  0  0  0  0  0  0  0  0  0
   -0.0947    4.5457    2.0906 C   0  0  0  0  0  0  0  0  0  0  0  0
   -1.3148   -3.4823   -1.7962 C   0  0  0  0  0  0  0  0  0  0  0  0
   -0.8888   -2.5751   -2.9499 C   0  0  0  0  0  0  0  0  0  0  0  0
   -2.0020   -1.5488   -3.0796 C   0  0  0  0  0  0  0  0  0  0  0  0
   -3.1964   -2.1079   -2.4535 N   0  0  0  0  0  0  0  0  0  0  0  0
   -2.7076   -2.9806   -1.3891 C   0  0  0  0  0  0  0  0  0  0  0  0
    0.0986   -4.5486    1.2400 H   0  0  0  0  0  0  0  0  0  0  0  0
   -1.6272   -4.1021    0.9798 H   0  0  0  0  0  0  0  0  0  0  0  0
   -0.9031   -5.4903    0.0759 H   0  0  0  0  0  0  0  0  0  0  0  0
    0.6606   -3.9575   -1.0751 H   0  0  0  0  0  0  0  0  0  0  0  0
   -0.7620   -1.7098    0.4354 H   0  0  0  0  0  0  0  0  0  0  0  0
    3.5245   -0.1862    0.5061 H   0  0  0  0  0  0  0  0  0  0  0  0
    3.7627    2.2246    0.9062 H   0  0  0  0  0  0  0  0  0  0  0  0
   -0.3973    2.8003   -0.0345 H   0  0  0  0  0  0  0  0  0  0  0  0
   -0.6541    0.4070   -0.4256 H   0  0  0  0  0  0  0  0  0  0  0  0
    1.7356    6.6040    0.0858 H   0  0  0  0  0  0  0  0  0  0  0  0
    0.0547    8.2293    0.8803 H   0  0  0  0  0  0  0  0  0  0  0  0
   -1.8159    5.1498    3.2314 H   0  0  0  0  0  0  0  0  0  0  0  0
   -0.1302    3.5297    2.4605 H   0  0  0  0  0  0  0  0  0  0  0  0
   -1.4264   -4.5157   -2.1986 H   0  0  0  0  0  0  0  0  0  0  0  0
    0.0895   -2.0735   -2.7834 H   0  0  0  0  0  0  0  0  0  0  0  0
   -0.8203   -3.1673   -3.8898 H   0  0  0  0  0  0  0  0  0  0  0  0
   -1.7181   -0.6155   -2.5461 H   0  0  0  0  0  0  0  0  0  0  0  0
   -2.1934   -1.2986   -4.1470 H   0  0  0  0  0  0  0  0  0  0  0  0
   -3.6759   -2.7095   -3.1651 H   0  0  0  0  0  0  0  0  0  0  0  0
   -2.6878   -2.3983   -0.4465 H   0  0  0  0  0  0  0  0  0  0  0  0
   -3.4024   -3.8366   -1.2348 H   0  0  0  0  0  0  0  0  0  0  0  0
  1  2  1  0
  2  3  1  0
  3  4  1  0
  4  5  2  0
  4  6  1  0
  6  7  2  0
  7  8  1  0
  8  9  2  0
  9 10  1  0
 10 11  2  0
  9 12  1  0
 12 13  1  0
 13 14  2  0
 14 15  1  0
 15 16  2  0
 16 17  1  0
 16 18  1  0
 18 19  2  0
  2 20  1  0
 20 21  1  0
 21 22  1  0
 22 23  1  0
 23 24  1  0
  6 11  1  0
 13 19  1  0
 24 20  1  0
  1 25  1  0
  1 26  1  0
  1 27  1  0
  2 28  1  0
  3 29  1  0
  7 30  1  0
  8 31  1  0
 10 32  1  0
 11 33  1  0
 14 34  1  0
 15 35  1  0
 18 36  1  0
 19 37  1  0
 20 38  1  0
 21 39  1  0
 21 40  1  0
 22 41  1  0
 22 42  1  0
 23 43  1  0
 24 44  1  0
 24 45  1  0
M  END
$$$$
