
     RDKit          3D

 42 45  0  0  0  0  0  0  0  0999 V2000
    2.3521   -1.2066    3.1035 C   0  0  0  0  0  0  0  0  0  0  0  0
    1.4971   -0.5554    2.0689 C   0  0  0  0  0  0  0  0  0  0  0  0
    1.7615   -0.7568    0.7400 N   0  0  0  0  0  0  0  0  0  0  0  0
    1.0252   -0.1663   -0.2509 C   0  0  0  0  0  0  0  0  0  0  0  0
   -0.0134    0.6866    0.1563 C   0  0  0  0  0  0  0  0  0  0  0  0
   -0.9776    1.4505   -0.4828 C   0  0  0  0  0  0  0  0  0  0  0  0
   -1.7358    2.0659    0.4570 N   0  0  0  0  0  0  0  0  0  0  0  0
   -1.2792    1.7306    1.6586 N   0  0  0  0  0  0  0  0  0  0  0  0
   -1.8606    2.1942    2.8918 C   0  0  0  0  0  0  0  0  0  0  0  0
   -1.0751    2.3811    4.0452 C   0  0  0  0  0  0  0  0  0  0  0  0
   -1.6578    2.8412    5.2303 C   0  0  0  0  0  0  0  0  0  0  0  0
   -3.0243    3.1268    5.2752 C   0  0  0  0  0  0  0  0  0  0  0  0
   -3.8099    2.9603    4.1326 C   0  0  0  0  0  0  0  0  0  0  0  0
   -3.2316    2.5018    2.9450 C   0  0  0  0  0  0  0  0  0  0  0  0
   -0.2387    0.8943    1.4854 C   0  0  0  0  0  0  0  0  0  0  0  0
    0.4893    0.2821    2.4492 N   0  0  0  0  0  0  0  0  0  0  0  0
    1.3507   -0.4402   -1.6300 N   0  0  0  0  0  0  0  0  0  0  0  0
    0.5252   -0.1092   -2.7808 C   0  0  0  0  0  0  0  0  0  0  0  0
    1.1402   -0.8530   -3.9591 C   0  0  0  0  0  0  0  0  0  0  0  0
    2.5753   -1.1696   -3.5311 C   0  0  2  0  0  0  0  0  0  0  0  0
    3.1055   -2.4820   -4.1317 C   0  0  0  0  0  0  0  0  0  0  0  0
    3.1349   -2.4066   -5.5315 O   0  0  0  0  0  0  0  0  0  0  0  0
    2.5349   -1.1984   -2.0038 C   0  0  0  0  0  0  0  0  0  0  0  0
    1.7689   -1.3715    4.0342 H   0  0  0  0  0  0  0  0  0  0  0  0
    3.2211   -0.5539    3.3280 H   0  0  0  0  0  0  0  0  0  0  0  0
    2.7181   -2.1879    2.7342 H   0  0  0  0  0  0  0  0  0  0  0  0
   -1.1433    1.5662   -1.5417 H   0  0  0  0  0  0  0  0  0  0  0  0
   -0.0095    2.2008    4.0280 H   0  0  0  0  0  0  0  0  0  0  0  0
   -1.0474    2.9837    6.1127 H   0  0  0  0  0  0  0  0  0  0  0  0
   -3.4729    3.4835    6.1934 H   0  0  0  0  0  0  0  0  0  0  0  0
   -4.8677    3.1871    4.1665 H   0  0  0  0  0  0  0  0  0  0  0  0
   -3.8557    2.3748    2.0694 H   0  0  0  0  0  0  0  0  0  0  0  0
   -0.5215   -0.4480   -2.6224 H   0  0  0  0  0  0  0  0  0  0  0  0
    0.5670    0.9856   -2.9656 H   0  0  0  0  0  0  0  0  0  0  0  0
    0.5669   -1.7903   -4.1368 H   0  0  0  0  0  0  0  0  0  0  0  0
    1.1208   -0.2348   -4.8832 H   0  0  0  0  0  0  0  0  0  0  0  0
    3.2338   -0.3299   -3.8503 H   0  0  0  0  0  0  0  0  0  0  0  0
    4.1265   -2.6922   -3.7386 H   0  0  0  0  0  0  0  0  0  0  0  0
    2.4506   -3.3297   -3.8356 H   0  0  0  0  0  0  0  0  0  0  0  0
    3.9116   -1.8356   -5.7689 H   0  0  0  0  0  0  0  0  0  0  0  0
    2.4419   -2.2361   -1.6139 H   0  0  0  0  0  0  0  0  0  0  0  0
    3.4477   -0.7228   -1.5833 H   0  0  0  0  0  0  0  0  0  0  0  0
  1  2  1  0
  2  3  2  0
  3  4  1  0
  4  5  2  0
  5  6  1  0
  6  7  2  0
  7  8  1  0
  8  9  1  0
  9 10  2  0
 10 11  1  0
 11 12  2  0
 12 13  1  0
 13 14  2  0
  8 15  1  0
 15 16  2  0
  4 17  1  0
 17 18  1  0
 18 19  1  0
 19 20  1  0
 20 21  1  0
 21 22  1  0
 20 23  1  0
  2 16  1  0
  5 15  1  0
  9 14  1  0
 23 17  1  0
  1 24  1  0
  1 25  1  0
  1 26  1  0
  6 27  1  0
 10 28  1  0
 11 29  1  0
 12 30  1  0
 13 31  1  0
 14 32  1  0
 18 33  1  0
 18 34  1  0
 19 35  1  0
 19 36  1  0
 20 37  1  1
 21 38  1  0
 21 39  1  0
 22 40  1  0
 23 41  1  0
 23 42  1  0
M  END
$$$$
