
     RDKit          3D

 43 45  0  0  0  0  0  0  0  0999 V2000
    0.9904   -1.2666    0.2378 O   0  0  0  0  0  0  0  0  0  0  0  0
    0.5726   -0.5479   -0.7114 C   0  0  0  0  0  0  0  0  0  0  0  0
    1.5009    0.2618   -1.4528 N   0  0  0  0  0  0  0  0  0  0  0  0
    2.7788    0.6811   -0.9431 C   0  0  0  0  0  0  0  0  0  0  0  0
    3.8389    0.8958   -1.8348 C   0  0  0  0  0  0  0  0  0  0  0  0
    5.0828    1.3200   -1.3640 C   0  0  0  0  0  0  0  0  0  0  0  0
    5.2779    1.5504   -0.0002 C   0  0  0  0  0  0  0  0  0  0  0  0
    4.2168    1.3684    0.9079 C   0  0  0  0  0  0  0  0  0  0  0  0
    2.9742    0.9352    0.4270 C   0  0  0  0  0  0  0  0  0  0  0  0
    4.3455    1.5944    2.2888 O   0  0  0  0  0  0  0  0  0  0  0  0
    5.4779    2.1674    2.9444 C   0  0  0  0  0  0  0  0  0  0  0  0
    5.4556    3.6904    2.8416 C   0  0  0  0  0  0  0  0  0  0  0  0
    5.6075    4.0982    1.5298 F   0  0  0  0  0  0  0  0  0  0  0  0
   -0.8637   -0.5890   -1.0796 C   0  0  0  0  0  0  0  0  0  0  0  0
   -1.4432    0.4361   -1.8485 C   0  0  0  0  0  0  0  0  0  0  0  0
   -2.7995    0.3909   -2.1840 C   0  0  0  0  0  0  0  0  0  0  0  0
   -3.6082   -0.6644   -1.7419 C   0  0  0  0  0  0  0  0  0  0  0  0
   -3.0302   -1.6979   -0.9861 C   0  0  0  0  0  0  0  0  0  0  0  0
   -1.6741   -1.6547   -0.6496 C   0  0  0  0  0  0  0  0  0  0  0  0
   -4.9944   -0.6980   -2.1215 N   0  0  0  0  0  0  0  0  0  0  0  0
   -6.0481   -1.1993   -1.2864 C   0  0  0  0  0  0  0  0  0  0  0  0
   -7.2868   -1.3938   -1.8145 N   0  0  0  0  0  0  0  0  0  0  0  0
   -8.3149   -1.8394   -1.0464 C   0  0  0  0  0  0  0  0  0  0  0  0
   -8.1102   -2.0958    0.3084 C   0  0  0  0  0  0  0  0  0  0  0  0
   -6.8399   -1.8796    0.8397 C   0  0  0  0  0  0  0  0  0  0  0  0
   -5.8381   -1.4330    0.0387 N   0  0  0  0  0  0  0  0  0  0  0  0
    1.2865    0.4604   -2.4561 H   0  0  0  0  0  0  0  0  0  0  0  0
    3.7033    0.7228   -2.8951 H   0  0  0  0  0  0  0  0  0  0  0  0
    5.8991    1.4709   -2.0588 H   0  0  0  0  0  0  0  0  0  0  0  0
    6.2545    1.8729    0.3288 H   0  0  0  0  0  0  0  0  0  0  0  0
    2.1559    0.8229    1.1261 H   0  0  0  0  0  0  0  0  0  0  0  0
    5.4232    1.8968    4.0198 H   0  0  0  0  0  0  0  0  0  0  0  0
    6.4292    1.7490    2.5550 H   0  0  0  0  0  0  0  0  0  0  0  0
    4.4932    4.0805    3.2354 H   0  0  0  0  0  0  0  0  0  0  0  0
    6.2851    4.1141    3.4459 H   0  0  0  0  0  0  0  0  0  0  0  0
   -0.8579    1.2841   -2.1785 H   0  0  0  0  0  0  0  0  0  0  0  0
   -3.2262    1.1899   -2.7776 H   0  0  0  0  0  0  0  0  0  0  0  0
   -3.6178   -2.5519   -0.6765 H   0  0  0  0  0  0  0  0  0  0  0  0
   -1.2557   -2.4661   -0.0669 H   0  0  0  0  0  0  0  0  0  0  0  0
   -5.2671   -0.2567   -3.0290 H   0  0  0  0  0  0  0  0  0  0  0  0
   -9.2909   -1.9916   -1.4874 H   0  0  0  0  0  0  0  0  0  0  0  0
   -8.9193   -2.4502    0.9337 H   0  0  0  0  0  0  0  0  0  0  0  0
   -6.6501   -2.0634    1.8887 H   0  0  0  0  0  0  0  0  0  0  0  0
  1  2  2  0
  2  3  1  0
  3  4  1  0
  4  5  2  0
  5  6  1  0
  6  7  2  0
  7  8  1  0
  8  9  2  0
  8 10  1  0
 10 11  1  0
 11 12  1  0
 12 13  1  0
  2 14  1  0
 14 15  2  0
 15 16  1  0
 16 17  2  0
 17 18  1  0
 18 19  2  0
 17 20  1  0
 20 21  1  0
 21 22  2  0
 22 23  1  0
 23 24  2  0
 24 25  1  0
 25 26  2  0
  4  9  1  0
 14 19  1  0
 21 26  1  0
  3 27  1  0
  5 28  1  0
  6 29  1  0
  7 30  1  0
  9 31  1  0
 11 32  1  0
 11 33  1  0
 12 34  1  0
 12 35  1  0
 15 36  1  0
 16 37  1  0
 18 38  1  0
 19 39  1  0
 20 40  1  0
 23 41  1  0
 24 42  1  0
 25 43  1  0
M  END
$$$$
