
     RDKit          3D

 51 56  0  0  0  0  0  0  0  0999 V2000
   -4.2795    2.3487    0.9467 O   0  0  0  0  0  0  0  0  0  0  0  0
   -3.4098    1.4450    1.0656 C   0  0  0  0  0  0  0  0  0  0  0  0
   -2.4149    1.5459    2.0001 N   0  0  0  0  0  0  0  0  0  0  0  0
   -1.4561    0.5649    2.1320 C   0  0  0  0  0  0  0  0  0  0  0  0
   -0.3185    0.7312    3.0937 C   0  0  0  0  0  0  0  0  0  0  0  0
    0.8921    1.1100    2.3406 N   0  0  0  0  0  0  0  0  0  0  0  0
    0.9786    2.5725    2.1454 C   0  0  0  0  0  0  0  0  0  0  0  0
    2.1432    2.9441    1.1981 C   0  0  0  0  0  0  0  0  0  0  0  0
    3.0633    1.7429    0.8815 C   0  0  0  0  0  0  0  0  0  0  0  0
    3.3872    0.9867    2.1867 C   0  0  0  0  0  0  0  0  0  0  0  0
    2.1190    0.5972    2.9824 C   0  0  0  0  0  0  0  0  0  0  0  0
    2.4672    0.8126   -0.1568 C   0  0  0  0  0  0  0  0  0  0  0  0
    1.2109    0.9536   -0.6678 N   0  0  0  0  0  0  0  0  0  0  0  0
    1.1161   -0.0800   -1.5218 C   0  0  0  0  0  0  0  0  0  0  0  0
    0.0337   -0.4218   -2.3287 C   0  0  0  0  0  0  0  0  0  0  0  0
    0.1671   -1.5559   -3.1532 C   0  0  0  0  0  0  0  0  0  0  0  0
    1.3624   -2.3118   -3.1443 C   0  0  0  0  0  0  0  0  0  0  0  0
    2.4359   -1.9363   -2.3154 C   0  0  0  0  0  0  0  0  0  0  0  0
    2.2694   -0.8068   -1.5179 C   0  0  0  0  0  0  0  0  0  0  0  0
    3.1379   -0.2540   -0.6627 N   0  0  0  0  0  0  0  0  0  0  0  0
   -1.4785   -0.5365    1.3198 N   0  0  0  0  0  0  0  0  0  0  0  0
   -2.4693   -0.6346    0.4050 C   0  0  0  0  0  0  0  0  0  0  0  0
   -2.7260   -1.5995   -0.5300 C   0  0  0  0  0  0  0  0  0  0  0  0
   -2.0906   -2.7955   -0.8515 C   0  0  0  0  0  0  0  0  0  0  0  0
   -2.6319   -3.5526   -1.9073 C   0  0  0  0  0  0  0  0  0  0  0  0
   -3.7772   -3.0999   -2.6025 C   0  0  0  0  0  0  0  0  0  0  0  0
   -4.3961   -1.8838   -2.2515 C   0  0  0  0  0  0  0  0  0  0  0  0
   -3.8442   -1.1494   -1.2045 C   0  0  0  0  0  0  0  0  0  0  0  0
   -4.2604    0.0108   -0.7252 O   0  0  0  0  0  0  0  0  0  0  0  0
   -3.4279    0.3249    0.2487 C   0  0  0  0  0  0  0  0  0  0  0  0
   -2.3793    2.3918    2.6133 H   0  0  0  0  0  0  0  0  0  0  0  0
   -0.1796   -0.2448    3.6123 H   0  0  0  0  0  0  0  0  0  0  0  0
   -0.5639    1.4808    3.8799 H   0  0  0  0  0  0  0  0  0  0  0  0
    1.1173    3.0837    3.1253 H   0  0  0  0  0  0  0  0  0  0  0  0
    0.0325    2.9526    1.7016 H   0  0  0  0  0  0  0  0  0  0  0  0
    1.7484    3.3811    0.2542 H   0  0  0  0  0  0  0  0  0  0  0  0
    2.7521    3.7412    1.6798 H   0  0  0  0  0  0  0  0  0  0  0  0
    4.0141    2.1373    0.4595 H   0  0  0  0  0  0  0  0  0  0  0  0
    3.9955    0.0805    1.9672 H   0  0  0  0  0  0  0  0  0  0  0  0
    4.0206    1.6431    2.8251 H   0  0  0  0  0  0  0  0  0  0  0  0
    2.1994    0.9776    4.0261 H   0  0  0  0  0  0  0  0  0  0  0  0
    2.0686   -0.5127    3.0304 H   0  0  0  0  0  0  0  0  0  0  0  0
   -0.8792    0.1602   -2.3203 H   0  0  0  0  0  0  0  0  0  0  0  0
   -0.6549   -1.8537   -3.7924 H   0  0  0  0  0  0  0  0  0  0  0  0
    1.4529   -3.1810   -3.7819 H   0  0  0  0  0  0  0  0  0  0  0  0
    3.3547   -2.5064   -2.2968 H   0  0  0  0  0  0  0  0  0  0  0  0
    4.1079   -0.5716   -0.4393 H   0  0  0  0  0  0  0  0  0  0  0  0
   -1.2096   -3.1270   -0.3169 H   0  0  0  0  0  0  0  0  0  0  0  0
   -2.1655   -4.4871   -2.1921 H   0  0  0  0  0  0  0  0  0  0  0  0
   -4.1810   -3.6921   -3.4134 H   0  0  0  0  0  0  0  0  0  0  0  0
   -5.2710   -1.5299   -2.7807 H   0  0  0  0  0  0  0  0  0  0  0  0
  1  2  2  0
  2  3  1  0
  3  4  1  0
  4  5  1  0
  5  6  1  0
  6  7  1  0
  7  8  1  0
  8  9  1  0
  9 10  1  0
 10 11  1  0
  9 12  1  0
 12 13  2  0
 13 14  1  0
 14 15  2  0
 15 16  1  0
 16 17  2  0
 17 18  1  0
 18 19  2  0
 19 20  1  0
  4 21  2  0
 21 22  1  0
 22 23  1  0
 23 24  2  0
 24 25  1  0
 25 26  2  0
 26 27  1  0
 27 28  2  0
 28 29  1  0
 29 30  1  0
 30  2  1  0
 11  6  1  0
 20 12  1  0
 14 19  1  0
 22 30  2  0
 28 23  1  0
  3 31  1  0
  5 32  1  0
  5 33  1  0
  7 34  1  0
  7 35  1  0
  8 36  1  0
  8 37  1  0
  9 38  1  0
 10 39  1  0
 10 40  1  0
 11 41  1  0
 11 42  1  0
 15 43  1  0
 16 44  1  0
 17 45  1  0
 18 46  1  0
 20 47  1  0
 24 48  1  0
 25 49  1  0
 26 50  1  0
 27 51  1  0
M  END
$$$$
