
     RDKit          3D

 44 47  0  0  0  0  0  0  0  0999 V2000
   -4.4539   -1.8715    1.2655 O   0  0  0  0  0  0  0  0  0  0  0  0
   -3.4715   -1.6758    0.5018 C   0  0  0  0  0  0  0  0  0  0  0  0
   -3.3081   -0.4745   -0.3474 C   0  0  0  0  0  0  0  0  0  0  0  0
   -1.8931   -0.6561   -0.9444 C   0  0  0  0  0  0  0  0  0  0  0  0
   -0.9455    0.2356   -0.2640 N   0  0  0  0  0  0  0  0  0  0  0  0
    0.1929    0.8072   -0.9214 C   0  0  0  0  0  0  0  0  0  0  0  0
    0.4037    0.6055   -2.2509 N   0  0  0  0  0  0  0  0  0  0  0  0
    1.4876    1.1336   -2.8753 C   0  0  0  0  0  0  0  0  0  0  0  0
    2.4040    1.8959   -2.1526 C   0  0  0  0  0  0  0  0  0  0  0  0
    2.1749    2.1039   -0.7922 C   0  0  0  0  0  0  0  0  0  0  0  0
    1.0802    1.5472   -0.2048 N   0  0  0  0  0  0  0  0  0  0  0  0
    3.0987    2.8486   -0.0475 O   0  0  0  0  0  0  0  0  0  0  0  0
    2.8620    3.3960    1.2221 C   0  0  0  0  0  0  0  0  0  0  0  0
    3.9423    3.5338    2.1033 C   0  0  0  0  0  0  0  0  0  0  0  0
    3.7532    4.0828    3.3755 C   0  0  0  0  0  0  0  0  0  0  0  0
    2.4833    4.5106    3.7713 C   0  0  0  0  0  0  0  0  0  0  0  0
    1.4030    4.3976    2.8922 C   0  0  0  0  0  0  0  0  0  0  0  0
    1.5888    3.8483    1.6194 C   0  0  0  0  0  0  0  0  0  0  0  0
   -1.5419   -2.1562   -0.7245 C   0  0  0  0  0  0  0  0  0  0  0  0
   -0.0819   -2.4836   -0.3636 C   0  0  0  0  0  0  0  0  0  0  0  0
    0.0377   -3.9663    0.0252 C   0  0  0  0  0  0  0  0  0  0  0  0
   -0.8920   -4.3100    1.2034 C   0  0  0  0  0  0  0  0  0  0  0  0
   -2.3529   -3.9529    0.8939 C   0  0  0  0  0  0  0  0  0  0  0  0
   -2.4157   -2.6017    0.3432 N   0  0  0  0  0  0  0  0  0  0  0  0
   -4.0748   -0.4867   -1.1516 H   0  0  0  0  0  0  0  0  0  0  0  0
   -3.4054    0.4556    0.2535 H   0  0  0  0  0  0  0  0  0  0  0  0
   -1.9250   -0.4244   -2.0320 H   0  0  0  0  0  0  0  0  0  0  0  0
   -1.0165    0.3464    0.7736 H   0  0  0  0  0  0  0  0  0  0  0  0
    1.6386    0.9593   -3.9321 H   0  0  0  0  0  0  0  0  0  0  0  0
    3.2737    2.3180   -2.6396 H   0  0  0  0  0  0  0  0  0  0  0  0
    4.9296    3.2058    1.8036 H   0  0  0  0  0  0  0  0  0  0  0  0
    4.5914    4.1779    4.0535 H   0  0  0  0  0  0  0  0  0  0  0  0
    2.3381    4.9372    4.7553 H   0  0  0  0  0  0  0  0  0  0  0  0
    0.4229    4.7441    3.1935 H   0  0  0  0  0  0  0  0  0  0  0  0
    0.7472    3.8063    0.9416 H   0  0  0  0  0  0  0  0  0  0  0  0
   -1.8100   -2.7147   -1.6502 H   0  0  0  0  0  0  0  0  0  0  0  0
    0.5757   -2.2714   -1.2338 H   0  0  0  0  0  0  0  0  0  0  0  0
    0.2597   -1.8689    0.4971 H   0  0  0  0  0  0  0  0  0  0  0  0
   -0.2164   -4.6051   -0.8492 H   0  0  0  0  0  0  0  0  0  0  0  0
    1.0884   -4.1849    0.3134 H   0  0  0  0  0  0  0  0  0  0  0  0
   -0.8175   -5.3952    1.4306 H   0  0  0  0  0  0  0  0  0  0  0  0
   -0.5621   -3.7478    2.1045 H   0  0  0  0  0  0  0  0  0  0  0  0
   -2.9534   -4.0188    1.8266 H   0  0  0  0  0  0  0  0  0  0  0  0
   -2.7667   -4.6695    0.1521 H   0  0  0  0  0  0  0  0  0  0  0  0
  1  2  2  0
  2  3  1  0
  3  4  1  0
  4  5  1  0
  5  6  1  0
  6  7  2  0
  7  8  1  0
  8  9  2  0
  9 10  1  0
 10 11  2  0
 10 12  1  0
 12 13  1  0
 13 14  2  0
 14 15  1  0
 15 16  2  0
 16 17  1  0
 17 18  2  0
  4 19  1  0
 19 20  1  0
 20 21  1  0
 21 22  1  0
 22 23  1  0
 23 24  1  0
 24  2  1  0
  6 11  1  0
 13 18  1  0
 24 19  1  0
  3 25  1  0
  3 26  1  0
  4 27  1  0
  5 28  1  0
  8 29  1  0
  9 30  1  0
 14 31  1  0
 15 32  1  0
 16 33  1  0
 17 34  1  0
 18 35  1  0
 19 36  1  0
 20 37  1  0
 20 38  1  0
 21 39  1  0
 21 40  1  0
 22 41  1  0
 22 42  1  0
 23 43  1  0
 23 44  1  0
M  END
$$$$
