
     RDKit          3D

 42 45  0  0  0  0  0  0  0  0999 V2000
    0.4471   -2.2142   -3.2740 O   0  0  0  0  0  0  0  0  0  0  0  0
    0.7952   -1.6853   -2.1838 C   0  0  0  0  0  0  0  0  0  0  0  0
    2.2278   -1.4525   -1.9318 C   0  0  0  0  0  0  0  0  0  0  0  0
    3.2464   -2.3473   -2.1808 C   0  0  0  0  0  0  0  0  0  0  0  0
    4.3976   -1.8144   -1.7357 N   0  0  0  0  0  0  0  0  0  0  0  0
    4.1701   -0.6141   -1.2262 N   0  0  0  0  0  0  0  0  0  0  0  0
    2.8507   -0.3607   -1.3383 C   0  0  0  0  0  0  0  0  0  0  0  0
    2.2476    0.9283   -0.9567 C   0  0  0  0  0  0  0  0  0  0  0  0
    2.7869    1.8265   -0.0408 C   0  0  0  0  0  0  0  0  0  0  0  0
    2.0418    3.0054    0.0862 C   0  0  0  0  0  0  0  0  0  0  0  0
    0.9304    3.0394   -0.7423 C   0  0  0  0  0  0  0  0  0  0  0  0
   -0.2089    4.3621   -0.8764 Cl  0  0  0  0  0  0  0  0  0  0  0  0
    0.8669    1.6184   -1.6327 S   0  0  0  0  0  0  0  0  0  0  0  0
   -0.2001   -1.3593   -1.1959 N   0  0  0  0  0  0  0  0  0  0  0  0
    0.0646   -1.6632    0.2180 C   0  0  0  0  0  0  0  0  0  0  0  0
   -1.1021   -1.2258    1.1021 C   0  0  0  0  0  0  0  0  0  0  0  0
   -1.5652    0.0943    0.6453 N   0  0  0  0  0  0  0  0  0  0  0  0
   -2.4493    0.7191    1.6497 C   0  0  0  0  0  0  0  0  0  0  0  0
   -2.5838    2.2229    1.3763 C   0  0  0  0  0  0  0  0  0  0  0  0
   -3.7164    2.9008    2.1322 C   0  0  0  0  0  0  0  0  0  0  0  0
   -3.8365    2.6653    0.6351 C   0  0  0  0  0  0  0  0  0  0  0  0
   -2.2360   -0.0100   -0.6741 C   0  0  0  0  0  0  0  0  0  0  0  0
   -1.5647   -1.0277   -1.6257 C   0  0  0  0  0  0  0  0  0  0  0  0
    3.1534   -3.3300   -2.6244 H   0  0  0  0  0  0  0  0  0  0  0  0
    5.3378   -2.2657   -1.7760 H   0  0  0  0  0  0  0  0  0  0  0  0
    3.6927    1.6378    0.5207 H   0  0  0  0  0  0  0  0  0  0  0  0
    2.3133    3.8120    0.7540 H   0  0  0  0  0  0  0  0  0  0  0  0
    0.9722   -1.1196    0.5532 H   0  0  0  0  0  0  0  0  0  0  0  0
    0.2428   -2.7531    0.3426 H   0  0  0  0  0  0  0  0  0  0  0  0
   -1.9272   -1.9730    1.0524 H   0  0  0  0  0  0  0  0  0  0  0  0
   -0.7378   -1.1829    2.1527 H   0  0  0  0  0  0  0  0  0  0  0  0
   -3.4363    0.2030    1.6895 H   0  0  0  0  0  0  0  0  0  0  0  0
   -1.9975    0.6316    2.6623 H   0  0  0  0  0  0  0  0  0  0  0  0
   -1.6771    2.8510    1.2497 H   0  0  0  0  0  0  0  0  0  0  0  0
   -4.3661    2.2385    2.7440 H   0  0  0  0  0  0  0  0  0  0  0  0
   -3.5227    3.9599    2.4042 H   0  0  0  0  0  0  0  0  0  0  0  0
   -3.7025    3.5801    0.0201 H   0  0  0  0  0  0  0  0  0  0  0  0
   -4.5523    1.8620    0.3587 H   0  0  0  0  0  0  0  0  0  0  0  0
   -2.2113    0.9897   -1.1593 H   0  0  0  0  0  0  0  0  0  0  0  0
   -3.3060   -0.2973   -0.5608 H   0  0  0  0  0  0  0  0  0  0  0  0
   -2.1646   -1.9636   -1.6484 H   0  0  0  0  0  0  0  0  0  0  0  0
   -1.5577   -0.6080   -2.6560 H   0  0  0  0  0  0  0  0  0  0  0  0
  1  2  2  0
  2  3  1  0
  3  4  2  0
  4  5  1  0
  5  6  1  0
  6  7  2  0
  7  8  1  0
  8  9  2  0
  9 10  1  0
 10 11  2  0
 11 12  1  0
 11 13  1  0
  2 14  1  0
 14 15  1  0
 15 16  1  0
 16 17  1  0
 17 18  1  0
 18 19  1  0
 19 20  1  0
 20 21  1  0
 17 22  1  0
 22 23  1  0
  7  3  1  0
 13  8  1  0
 23 14  1  0
 21 19  1  0
  4 24  1  0
  5 25  1  0
  9 26  1  0
 10 27  1  0
 15 28  1  0
 15 29  1  0
 16 30  1  0
 16 31  1  0
 18 32  1  0
 18 33  1  0
 19 34  1  0
 20 35  1  0
 20 36  1  0
 21 37  1  0
 21 38  1  0
 22 39  1  0
 22 40  1  0
 23 41  1  0
 23 42  1  0
M  END
$$$$
