
     RDKit          3D

 44 47  0  0  0  0  0  0  0  0999 V2000
   -4.7712    1.0198    0.6897 O   0  0  0  0  0  0  0  0  0  0  0  0
   -3.9194    0.0951    0.7847 C   0  0  0  0  0  0  0  0  0  0  0  0
   -3.8047   -0.6505    2.0848 C   0  0  0  0  0  0  0  0  0  0  0  0
   -3.2416    0.4677    3.4141 S   0  0  0  0  0  0  0  0  0  0  0  0
   -1.5235    0.4819    2.8891 C   0  0  0  0  0  0  0  0  0  0  0  0
   -1.0525    1.5018    2.0534 C   0  0  0  0  0  0  0  0  0  0  0  0
    0.2847    1.5116    1.6450 C   0  0  0  0  0  0  0  0  0  0  0  0
    1.1560    0.5072    2.0761 C   0  0  0  0  0  0  0  0  0  0  0  0
    0.6928   -0.5045    2.9247 C   0  0  0  0  0  0  0  0  0  0  0  0
    1.8857   -1.8692    3.5263 Br  0  0  0  0  0  0  0  0  0  0  0  0
   -0.6461   -0.5161    3.3321 C   0  0  0  0  0  0  0  0  0  0  0  0
   -3.0396   -0.1741   -0.3225 N   0  0  0  0  0  0  0  0  0  0  0  0
   -2.6216   -1.5426   -0.6770 C   0  0  0  0  0  0  0  0  0  0  0  0
   -1.0947   -1.6725   -0.5477 C   0  0  0  0  0  0  0  0  0  0  0  0
   -0.4289   -0.4767   -1.1742 C   0  0  0  0  0  0  0  0  0  0  0  0
   -1.0731    0.7094   -1.4182 C   0  0  0  0  0  0  0  0  0  0  0  0
   -2.5266    0.9372   -1.1402 C   0  0  0  0  0  0  0  0  0  0  0  0
   -0.2349    1.5837   -2.0055 N   0  0  0  0  0  0  0  0  0  0  0  0
    0.9302    0.8994   -2.0891 C   0  0  0  0  0  0  0  0  0  0  0  0
    0.8488   -0.3544   -1.5839 N   0  0  0  0  0  0  0  0  0  0  0  0
    1.9073   -1.3293   -1.5488 C   0  0  0  0  0  0  0  0  0  0  0  0
    2.1004   -2.1446   -0.4202 C   0  0  0  0  0  0  0  0  0  0  0  0
    3.1422   -3.0762   -0.3894 C   0  0  0  0  0  0  0  0  0  0  0  0
    4.0038   -3.2002   -1.4822 C   0  0  0  0  0  0  0  0  0  0  0  0
    5.0141   -4.1038   -1.4505 F   0  0  0  0  0  0  0  0  0  0  0  0
    3.8273   -2.3878   -2.6052 C   0  0  0  0  0  0  0  0  0  0  0  0
    2.7875   -1.4535   -2.6381 C   0  0  0  0  0  0  0  0  0  0  0  0
   -4.8046   -1.0464    2.3591 H   0  0  0  0  0  0  0  0  0  0  0  0
   -3.1093   -1.5106    2.0185 H   0  0  0  0  0  0  0  0  0  0  0  0
   -1.7214    2.2835    1.7177 H   0  0  0  0  0  0  0  0  0  0  0  0
    0.6441    2.2946    0.9900 H   0  0  0  0  0  0  0  0  0  0  0  0
    2.1886    0.5157    1.7515 H   0  0  0  0  0  0  0  0  0  0  0  0
   -1.0047   -1.3015    3.9852 H   0  0  0  0  0  0  0  0  0  0  0  0
   -2.9140   -1.7444   -1.7308 H   0  0  0  0  0  0  0  0  0  0  0  0
   -3.1296   -2.3083   -0.0552 H   0  0  0  0  0  0  0  0  0  0  0  0
   -0.8318   -1.7110    0.5295 H   0  0  0  0  0  0  0  0  0  0  0  0
   -0.7543   -2.6062   -1.0434 H   0  0  0  0  0  0  0  0  0  0  0  0
   -3.0835    0.9775   -2.0998 H   0  0  0  0  0  0  0  0  0  0  0  0
   -2.6448    1.9080   -0.6127 H   0  0  0  0  0  0  0  0  0  0  0  0
    1.8328    1.3220   -2.5114 H   0  0  0  0  0  0  0  0  0  0  0  0
    1.4651   -2.0455    0.4460 H   0  0  0  0  0  0  0  0  0  0  0  0
    3.2845   -3.6968    0.4860 H   0  0  0  0  0  0  0  0  0  0  0  0
    4.4957   -2.4810   -3.4515 H   0  0  0  0  0  0  0  0  0  0  0  0
    2.6600   -0.8364   -3.5182 H   0  0  0  0  0  0  0  0  0  0  0  0
  1  2  2  0
  2  3  1  0
  3  4  1  0
  4  5  1  0
  5  6  2  0
  6  7  1  0
  7  8  2  0
  8  9  1  0
  9 10  1  0
  9 11  2  0
  2 12  1  0
 12 13  1  0
 13 14  1  0
 14 15  1  0
 15 16  2  0
 16 17  1  0
 16 18  1  0
 18 19  2  0
 19 20  1  0
 20 21  1  0
 21 22  2  0
 22 23  1  0
 23 24  2  0
 24 25  1  0
 24 26  1  0
 26 27  2  0
  5 11  1  0
 17 12  1  0
 20 15  1  0
 21 27  1  0
  3 28  1  0
  3 29  1  0
  6 30  1  0
  7 31  1  0
  8 32  1  0
 11 33  1  0
 13 34  1  0
 13 35  1  0
 14 36  1  0
 14 37  1  0
 17 38  1  0
 17 39  1  0
 19 40  1  0
 22 41  1  0
 23 42  1  0
 26 43  1  0
 27 44  1  0
M  END
$$$$
