
     RDKit          3D

 44 47  0  0  0  0  0  0  0  0999 V2000
    1.5683    2.3651    2.0802 O   0  0  0  0  0  0  0  0  0  0  0  0
    1.2571    1.5249    1.1919 C   0  0  0  0  0  0  0  0  0  0  0  0
    2.1960    0.5009    0.8229 N   0  0  0  0  0  0  0  0  0  0  0  0
    3.4122    0.2449    1.6022 C   0  0  0  0  0  0  0  0  0  0  0  0
    4.3706   -0.6759    0.8314 C   0  0  0  0  0  0  0  0  0  0  0  0
    5.6146   -1.0176    1.6851 C   0  0  0  0  0  0  0  0  0  0  0  0
    5.4712   -0.6687    3.0537 O   0  0  0  0  0  0  0  0  0  0  0  0
    4.2459   -1.1635    3.5565 C   0  0  0  0  0  0  0  0  0  0  0  0
    3.0561   -0.3864    2.9631 C   0  0  0  0  0  0  0  0  0  0  0  0
   -0.0662    1.6229    0.5310 C   0  0  0  0  0  0  0  0  0  0  0  0
   -0.7602    2.8426    0.5131 C   0  0  0  0  0  0  0  0  0  0  0  0
   -1.9757    2.9322   -0.0861 N   0  0  0  0  0  0  0  0  0  0  0  0
   -2.5674    1.8613   -0.6754 C   0  0  0  0  0  0  0  0  0  0  0  0
   -1.9286    0.6112   -0.6791 C   0  0  0  0  0  0  0  0  0  0  0  0
   -0.6701    0.5028   -0.0640 C   0  0  0  0  0  0  0  0  0  0  0  0
   -2.5702   -0.5694   -1.3117 C   0  0  0  0  0  0  0  0  0  0  0  0
   -1.7957   -1.4959   -2.0563 C   0  0  0  0  0  0  0  0  0  0  0  0
   -2.3984   -2.6141   -2.6550 C   0  0  0  0  0  0  0  0  0  0  0  0
   -3.7702   -2.7874   -2.4983 C   0  0  0  0  0  0  0  0  0  0  0  0
   -4.5343   -3.8151   -3.0051 O   0  0  0  0  0  0  0  0  0  0  0  0
   -5.9004   -3.6445   -2.6270 C   0  0  0  0  0  0  0  0  0  0  0  0
   -5.9478   -2.3453   -1.7852 C   0  0  0  0  0  0  0  0  0  0  0  0
   -4.5282   -1.9058   -1.7868 C   0  0  0  0  0  0  0  0  0  0  0  0
   -3.9616   -0.7852   -1.1795 C   0  0  0  0  0  0  0  0  0  0  0  0
    2.0423   -0.0283   -0.0650 H   0  0  0  0  0  0  0  0  0  0  0  0
    3.9405    1.2099    1.7755 H   0  0  0  0  0  0  0  0  0  0  0  0
    3.8412   -1.6189    0.5690 H   0  0  0  0  0  0  0  0  0  0  0  0
    4.6840   -0.1862   -0.1166 H   0  0  0  0  0  0  0  0  0  0  0  0
    6.4851   -0.4571    1.2829 H   0  0  0  0  0  0  0  0  0  0  0  0
    5.8596   -2.0991    1.5920 H   0  0  0  0  0  0  0  0  0  0  0  0
    4.2416   -1.0487    4.6611 H   0  0  0  0  0  0  0  0  0  0  0  0
    4.1418   -2.2539    3.3483 H   0  0  0  0  0  0  0  0  0  0  0  0
    2.7507    0.4188    3.6662 H   0  0  0  0  0  0  0  0  0  0  0  0
    2.1954   -1.0820    2.8502 H   0  0  0  0  0  0  0  0  0  0  0  0
   -0.3325    3.7282    0.9650 H   0  0  0  0  0  0  0  0  0  0  0  0
   -3.5300    1.9920   -1.1521 H   0  0  0  0  0  0  0  0  0  0  0  0
   -0.1859   -0.4637   -0.0142 H   0  0  0  0  0  0  0  0  0  0  0  0
   -0.7318   -1.3449   -2.1879 H   0  0  0  0  0  0  0  0  0  0  0  0
   -1.8121   -3.3216   -3.2265 H   0  0  0  0  0  0  0  0  0  0  0  0
   -6.5317   -3.5485   -3.5361 H   0  0  0  0  0  0  0  0  0  0  0  0
   -6.2348   -4.5166   -2.0257 H   0  0  0  0  0  0  0  0  0  0  0  0
   -6.2883   -2.5515   -0.7478 H   0  0  0  0  0  0  0  0  0  0  0  0
   -6.5916   -1.5782   -2.2665 H   0  0  0  0  0  0  0  0  0  0  0  0
   -4.5856   -0.1118   -0.6057 H   0  0  0  0  0  0  0  0  0  0  0  0
  1  2  2  0
  2  3  1  0
  3  4  1  0
  4  5  1  0
  5  6  1  0
  6  7  1  0
  7  8  1  0
  8  9  1  0
  2 10  1  0
 10 11  2  0
 11 12  1  0
 12 13  2  0
 13 14  1  0
 14 15  2  0
 14 16  1  0
 16 17  2  0
 17 18  1  0
 18 19  2  0
 19 20  1  0
 20 21  1  0
 21 22  1  0
 22 23  1  0
 23 24  2  0
  9  4  1  0
 10 15  1  0
 24 16  1  0
 23 19  1  0
  3 25  1  0
  4 26  1  0
  5 27  1  0
  5 28  1  0
  6 29  1  0
  6 30  1  0
  8 31  1  0
  8 32  1  0
  9 33  1  0
  9 34  1  0
 11 35  1  0
 13 36  1  0
 15 37  1  0
 17 38  1  0
 18 39  1  0
 21 40  1  0
 21 41  1  0
 22 42  1  0
 22 43  1  0
 24 44  1  0
M  END
$$$$
