
     RDKit          3D

 40 42  0  0  0  0  0  0  0  0999 V2000
    2.9889   -2.7712    1.8567 C   0  0  0  0  0  0  0  0  0  0  0  0
    3.3720   -2.0285    0.5694 C   0  0  0  0  0  0  0  0  0  0  0  0
    2.1172   -1.5233   -0.1750 C   0  0  0  0  0  0  0  0  0  0  0  0
    1.3574   -0.4862    0.6035 C   0  0  0  0  0  0  0  0  0  0  0  0
    1.7266    0.7184    0.5549 O   0  0  0  0  0  0  0  0  0  0  0  0
    0.2420   -0.8694    1.4202 N   0  0  0  0  0  0  0  0  0  0  0  0
   -0.5268    0.0965    2.2012 C   0  0  0  0  0  0  0  0  0  0  0  0
   -1.3890    0.9321    1.2947 C   0  0  0  0  0  0  0  0  0  0  0  0
   -1.0804    2.2789    1.0562 C   0  0  0  0  0  0  0  0  0  0  0  0
   -1.8725    3.0444    0.1959 C   0  0  0  0  0  0  0  0  0  0  0  0
   -2.9897    2.4752   -0.4452 C   0  0  0  0  0  0  0  0  0  0  0  0
   -3.2875    1.1211   -0.2079 C   0  0  0  0  0  0  0  0  0  0  0  0
   -2.4946    0.3573    0.6528 C   0  0  0  0  0  0  0  0  0  0  0  0
   -3.8152    3.2482   -1.3414 N   0  0  0  0  0  0  0  0  0  0  0  0
   -3.7955    4.5792   -1.5528 C   0  0  0  0  0  0  0  0  0  0  0  0
   -4.7204    4.9460   -2.4608 N   0  0  0  0  0  0  0  0  0  0  0  0
   -5.2966    3.7690   -2.7826 C   0  0  0  0  0  0  0  0  0  0  0  0
   -4.7591    2.7339   -2.1106 N   0  0  0  0  0  0  0  0  0  0  0  0
    4.0535   -2.9321   -0.2762 O   0  0  0  0  0  0  0  0  0  0  0  0
    5.3536   -2.4485   -0.3904 C   0  0  0  0  0  0  0  0  0  0  0  0
    5.3182   -1.0328    0.0912 C   0  0  0  0  0  0  0  0  0  0  0  0
    4.1955   -0.9305    0.9060 O   0  0  0  0  0  0  0  0  0  0  0  0
    2.5106   -2.0809    2.5832 H   0  0  0  0  0  0  0  0  0  0  0  0
    2.2894   -3.6042    1.6315 H   0  0  0  0  0  0  0  0  0  0  0  0
    3.8999   -3.1938    2.3318 H   0  0  0  0  0  0  0  0  0  0  0  0
    1.4477   -2.3789   -0.4115 H   0  0  0  0  0  0  0  0  0  0  0  0
    2.4260   -1.0803   -1.1471 H   0  0  0  0  0  0  0  0  0  0  0  0
   -0.0210   -1.8787    1.4805 H   0  0  0  0  0  0  0  0  0  0  0  0
    0.1633    0.7268    2.8031 H   0  0  0  0  0  0  0  0  0  0  0  0
   -1.1800   -0.4473    2.9175 H   0  0  0  0  0  0  0  0  0  0  0  0
   -0.2226    2.7376    1.5319 H   0  0  0  0  0  0  0  0  0  0  0  0
   -1.5956    4.0750    0.0279 H   0  0  0  0  0  0  0  0  0  0  0  0
   -4.1371    0.6523   -0.6878 H   0  0  0  0  0  0  0  0  0  0  0  0
   -2.7410   -0.6845    0.8178 H   0  0  0  0  0  0  0  0  0  0  0  0
   -3.1401    5.2817   -1.0576 H   0  0  0  0  0  0  0  0  0  0  0  0
   -6.1012    3.6687   -3.4984 H   0  0  0  0  0  0  0  0  0  0  0  0
    5.6899   -2.5027   -1.4477 H   0  0  0  0  0  0  0  0  0  0  0  0
    6.0279   -3.0607    0.2466 H   0  0  0  0  0  0  0  0  0  0  0  0
    6.2339   -0.7831    0.6687 H   0  0  0  0  0  0  0  0  0  0  0  0
    5.2158   -0.3306   -0.7649 H   0  0  0  0  0  0  0  0  0  0  0  0
  1  2  1  0
  2  3  1  0
  3  4  1  0
  4  5  2  0
  4  6  1  0
  6  7  1  0
  7  8  1  0
  8  9  2  0
  9 10  1  0
 10 11  2  0
 11 12  1  0
 12 13  2  0
 11 14  1  0
 14 15  1  0
 15 16  2  0
 16 17  1  0
 17 18  2  0
  2 19  1  0
 19 20  1  0
 20 21  1  0
 21 22  1  0
 22  2  1  0
  8 13  1  0
 18 14  1  0
  1 23  1  0
  1 24  1  0
  1 25  1  0
  3 26  1  0
  3 27  1  0
  6 28  1  0
  7 29  1  0
  7 30  1  0
  9 31  1  0
 10 32  1  0
 12 33  1  0
 13 34  1  0
 15 35  1  0
 17 36  1  0
 20 37  1  0
 20 38  1  0
 21 39  1  0
 21 40  1  0
M  END
$$$$
