
     RDKit          3D

 49 51  0  0  0  0  0  0  0  0999 V2000
   -4.1858   -1.0480    3.8664 C   0  0  0  0  0  0  0  0  0  0  0  0
   -4.0058    0.0809    2.8453 C   0  0  0  0  0  0  0  0  0  0  0  0
   -4.7731    1.2003    3.2179 O   0  0  0  0  0  0  0  0  0  0  0  0
   -4.1395    2.3341    2.6653 C   0  0  0  0  0  0  0  0  0  0  0  0
   -2.7985    1.9305    2.0654 C   0  0  0  0  0  0  0  0  0  0  0  0
   -2.5512    0.5488    2.6402 C   0  0  0  0  0  0  0  0  0  0  0  0
   -1.7576    0.6403    3.9658 C   0  0  0  0  0  0  0  0  0  0  0  0
   -1.8464   -0.3217    1.6819 N   0  0  0  0  0  0  0  0  0  0  0  0
   -0.5582   -0.0149    1.1194 C   0  0  0  0  0  0  0  0  0  0  0  0
   -0.0021    1.0907    1.3640 O   0  0  0  0  0  0  0  0  0  0  0  0
    0.1144   -0.9934    0.1876 C   0  0  0  0  0  0  0  0  0  0  0  0
    1.5911   -1.2390    0.5965 C   0  0  0  0  0  0  0  0  0  0  0  0
    2.5791   -0.4419   -0.2624 C   0  0  0  0  0  0  0  0  0  0  0  0
    2.3802   -0.7400   -1.6898 N   0  0  0  0  0  0  0  0  0  0  0  0
    1.0417   -1.1065   -2.1816 C   0  0  0  0  0  0  0  0  0  0  0  0
   -0.0428   -0.5175   -1.2754 C   0  0  0  0  0  0  0  0  0  0  0  0
    3.4762   -0.5837   -2.6160 C   0  0  0  0  0  0  0  0  0  0  0  0
    4.3390    0.5226   -2.5088 C   0  0  0  0  0  0  0  0  0  0  0  0
    5.4003    0.6858   -3.4035 C   0  0  0  0  0  0  0  0  0  0  0  0
    5.6164   -0.2553   -4.4158 C   0  0  0  0  0  0  0  0  0  0  0  0
    6.7107   -0.0869   -5.3360 C   0  0  0  0  0  0  0  0  0  0  0  0
    7.5904    0.0488   -6.0756 N   0  0  0  0  0  0  0  0  0  0  0  0
    4.7680   -1.3624   -4.5290 C   0  0  0  0  0  0  0  0  0  0  0  0
    3.7037   -1.5296   -3.6363 C   0  0  0  0  0  0  0  0  0  0  0  0
    2.9210   -2.6315   -3.7508 F   0  0  0  0  0  0  0  0  0  0  0  0
   -3.5164   -1.8996    3.6214 H   0  0  0  0  0  0  0  0  0  0  0  0
   -5.2360   -1.4084    3.8394 H   0  0  0  0  0  0  0  0  0  0  0  0
   -3.9709   -0.6922    4.8960 H   0  0  0  0  0  0  0  0  0  0  0  0
   -4.4093   -0.2905    1.8739 H   0  0  0  0  0  0  0  0  0  0  0  0
   -3.9809    3.0820    3.4716 H   0  0  0  0  0  0  0  0  0  0  0  0
   -4.7940    2.7864    1.8892 H   0  0  0  0  0  0  0  0  0  0  0  0
   -2.8941    1.8795    0.9569 H   0  0  0  0  0  0  0  0  0  0  0  0
   -2.0014    2.6631    2.3224 H   0  0  0  0  0  0  0  0  0  0  0  0
   -1.5353   -0.3758    4.3559 H   0  0  0  0  0  0  0  0  0  0  0  0
   -0.7889    1.1610    3.8146 H   0  0  0  0  0  0  0  0  0  0  0  0
   -2.3312    1.2037    4.7334 H   0  0  0  0  0  0  0  0  0  0  0  0
   -2.2940   -1.2243    1.4018 H   0  0  0  0  0  0  0  0  0  0  0  0
   -0.4070   -1.9727    0.2773 H   0  0  0  0  0  0  0  0  0  0  0  0
    1.8242   -2.3196    0.4671 H   0  0  0  0  0  0  0  0  0  0  0  0
    1.7575   -1.0058    1.6715 H   0  0  0  0  0  0  0  0  0  0  0  0
    3.6125   -0.7181    0.0425 H   0  0  0  0  0  0  0  0  0  0  0  0
    2.4387    0.6462   -0.0859 H   0  0  0  0  0  0  0  0  0  0  0  0
    0.9433   -2.2133   -2.2071 H   0  0  0  0  0  0  0  0  0  0  0  0
    0.8920   -0.7116   -3.2108 H   0  0  0  0  0  0  0  0  0  0  0  0
   -1.0457   -0.8091   -1.6576 H   0  0  0  0  0  0  0  0  0  0  0  0
    0.0288    0.5922   -1.3341 H   0  0  0  0  0  0  0  0  0  0  0  0
    4.1822    1.2691   -1.7410 H   0  0  0  0  0  0  0  0  0  0  0  0
    6.0504    1.5474   -3.3069 H   0  0  0  0  0  0  0  0  0  0  0  0
    4.9332   -2.1005   -5.3052 H   0  0  0  0  0  0  0  0  0  0  0  0
  1  2  1  0
  2  3  1  0
  3  4  1  0
  4  5  1  0
  5  6  1  0
  6  7  1  0
  6  8  1  0
  8  9  1  0
  9 10  2  0
  9 11  1  0
 11 12  1  0
 12 13  1  0
 13 14  1  0
 14 15  1  0
 15 16  1  0
 14 17  1  0
 17 18  2  0
 18 19  1  0
 19 20  2  0
 20 21  1  0
 21 22  3  0
 20 23  1  0
 23 24  2  0
 24 25  1  0
  6  2  1  0
 16 11  1  0
 17 24  1  0
  1 26  1  0
  1 27  1  0
  1 28  1  0
  2 29  1  0
  4 30  1  0
  4 31  1  0
  5 32  1  0
  5 33  1  0
  7 34  1  0
  7 35  1  0
  7 36  1  0
  8 37  1  0
 11 38  1  0
 12 39  1  0
 12 40  1  0
 13 41  1  0
 13 42  1  0
 15 43  1  0
 15 44  1  0
 16 45  1  0
 16 46  1  0
 18 47  1  0
 19 48  1  0
 23 49  1  0
M  END
$$$$
