
     RDKit          3D

 45 48  0  0  0  0  0  0  0  0999 V2000
   -3.5060   -1.7747   -1.6774 C   0  0  0  0  0  0  0  0  0  0  0  0
   -2.0082   -1.4448   -1.7495 C   0  0  0  0  0  0  0  0  0  0  0  0
   -1.3361   -1.8370   -0.4201 C   0  0  0  0  0  0  0  0  0  0  0  0
    0.1240   -1.7004   -0.4900 N   0  0  0  0  0  0  0  0  0  0  0  0
    0.8812   -2.6998   -1.2459 C   0  0  0  0  0  0  0  0  0  0  0  0
    1.1199   -2.2632   -2.7012 C   0  0  0  0  0  0  0  0  0  0  0  0
   -0.0395   -1.6275   -3.3810 N   0  0  0  0  0  0  0  0  0  0  0  0
   -1.3746   -2.1481   -2.9836 C   0  0  0  0  0  0  0  0  0  0  0  0
    0.0762   -0.1515   -3.4799 C   0  0  0  0  0  0  0  0  0  0  0  0
    1.2185    0.2944   -4.3978 C   0  0  0  0  0  0  0  0  0  0  0  0
    0.2232    0.9751   -5.3221 C   0  0  0  0  0  0  0  0  0  0  0  0
   -0.9229    0.4968   -4.4459 C   0  0  0  0  0  0  0  0  0  0  0  0
    0.8125   -0.5920    0.1216 C   0  0  0  0  0  0  0  0  0  0  0  0
    1.7688   -0.0405   -0.4871 O   0  0  0  0  0  0  0  0  0  0  0  0
    0.4586   -0.1132    1.4705 C   0  0  0  0  0  0  0  0  0  0  0  0
    0.7790    1.1664    1.9713 C   0  0  0  0  0  0  0  0  0  0  0  0
    0.2991    1.1071    3.2528 C   0  0  0  0  0  0  0  0  0  0  0  0
    0.2424    1.8776    4.3043 O   0  0  0  0  0  0  0  0  0  0  0  0
   -0.3573    1.1419    5.2396 C   0  0  0  0  0  0  0  0  0  0  0  0
   -0.7104    1.7645    7.0062 Br  0  0  0  0  0  0  0  0  0  0  0  0
   -0.6878   -0.1396    4.7605 C   0  0  0  0  0  0  0  0  0  0  0  0
   -0.2340   -0.0721    3.4723 C   0  0  0  0  0  0  0  0  0  0  0  0
   -0.1620   -0.8842    2.4134 N   0  0  0  0  0  0  0  0  0  0  0  0
   -3.9708   -1.2723   -0.8020 H   0  0  0  0  0  0  0  0  0  0  0  0
   -4.0237   -1.4134   -2.5917 H   0  0  0  0  0  0  0  0  0  0  0  0
   -3.6626   -2.8713   -1.5869 H   0  0  0  0  0  0  0  0  0  0  0  0
   -1.9454   -0.3432   -1.8601 H   0  0  0  0  0  0  0  0  0  0  0  0
   -1.7549   -1.1897    0.3785 H   0  0  0  0  0  0  0  0  0  0  0  0
   -1.5941   -2.8855   -0.1523 H   0  0  0  0  0  0  0  0  0  0  0  0
    1.8592   -2.8851   -0.7497 H   0  0  0  0  0  0  0  0  0  0  0  0
    0.3481   -3.6754   -1.2348 H   0  0  0  0  0  0  0  0  0  0  0  0
    2.0107   -1.5984   -2.7169 H   0  0  0  0  0  0  0  0  0  0  0  0
    1.4105   -3.1624   -3.2850 H   0  0  0  0  0  0  0  0  0  0  0  0
   -1.3255   -3.2454   -2.8106 H   0  0  0  0  0  0  0  0  0  0  0  0
   -2.0581   -2.0457   -3.8514 H   0  0  0  0  0  0  0  0  0  0  0  0
    0.1177    0.3579   -2.4938 H   0  0  0  0  0  0  0  0  0  0  0  0
    1.7427   -0.5450   -4.9060 H   0  0  0  0  0  0  0  0  0  0  0  0
    1.9040    1.0170   -3.9035 H   0  0  0  0  0  0  0  0  0  0  0  0
    0.2049    0.5235   -6.3383 H   0  0  0  0  0  0  0  0  0  0  0  0
    0.3280    2.0822   -5.3197 H   0  0  0  0  0  0  0  0  0  0  0  0
   -1.4786    1.3385   -3.9781 H   0  0  0  0  0  0  0  0  0  0  0  0
   -1.5732   -0.2116   -4.9993 H   0  0  0  0  0  0  0  0  0  0  0  0
    1.2864    1.9845    1.4774 H   0  0  0  0  0  0  0  0  0  0  0  0
   -1.1681   -0.9612    5.2746 H   0  0  0  0  0  0  0  0  0  0  0  0
   -0.4736   -1.8786    2.3462 H   0  0  0  0  0  0  0  0  0  0  0  0
  1  2  1  0
  2  3  1  0
  3  4  1  0
  4  5  1  0
  5  6  1  0
  6  7  1  0
  7  8  1  0
  7  9  1  0
  9 10  1  0
 10 11  1  0
 11 12  1  0
  4 13  1  0
 13 14  2  0
 13 15  1  0
 15 16  2  0
 16 17  1  0
 17 18  1  0
 18 19  1  0
 19 20  1  0
 19 21  2  0
 21 22  1  0
 22 23  1  0
  8  2  1  0
 12  9  1  0
 23 15  1  0
 17 22  2  0
  1 24  1  0
  1 25  1  0
  1 26  1  0
  2 27  1  0
  3 28  1  0
  3 29  1  0
  5 30  1  0
  5 31  1  0
  6 32  1  0
  6 33  1  0
  8 34  1  0
  8 35  1  0
  9 36  1  0
 10 37  1  0
 10 38  1  0
 11 39  1  0
 11 40  1  0
 12 41  1  0
 12 42  1  0
 16 43  1  0
 21 44  1  0
 23 45  1  0
M  END
$$$$
