
     RDKit          3D

 41 43  0  0  0  0  0  0  0  0999 V2000
   -2.9678    1.7546    2.0396 C   0  0  0  0  0  0  0  0  0  0  0  0
   -2.3210    0.7810    1.1667 N   0  0  0  0  0  0  0  0  0  0  0  0
   -2.7411   -0.4666    1.0347 N   0  0  0  0  0  0  0  0  0  0  0  0
   -1.9388   -1.0810    0.1399 C   0  0  0  0  0  0  0  0  0  0  0  0
   -0.9822   -0.1837   -0.3145 C   0  0  0  0  0  0  0  0  0  0  0  0
   -1.2536    0.9868    0.3658 C   0  0  0  0  0  0  0  0  0  0  0  0
   -0.5543    2.2744    0.1819 C   0  0  0  0  0  0  0  0  0  0  0  0
   -1.2257    3.3410    0.1913 O   0  0  0  0  0  0  0  0  0  0  0  0
    0.8683    2.3338   -0.0238 N   0  0  0  0  0  0  0  0  0  0  0  0
    1.5297    3.4955   -0.5965 C   0  0  0  0  0  0  0  0  0  0  0  0
    3.0048    3.3398   -0.2447 C   0  0  0  0  0  0  0  0  0  0  0  0
    3.1984    1.8431    0.0700 C   0  0  0  0  0  0  0  0  0  0  0  0
    3.5514    1.1228   -1.1705 C   0  0  0  0  0  0  0  0  0  0  0  0
    3.8268    0.5583   -2.1425 N   0  0  0  0  0  0  0  0  0  0  0  0
    1.8127    1.3913    0.5600 C   0  0  0  0  0  0  0  0  0  0  0  0
    4.2820    1.5861    1.0974 C   0  0  0  0  0  0  0  0  0  0  0  0
    4.3565    0.3298    1.7757 N   0  0  0  0  0  0  0  0  0  0  0  0
    5.1728    2.4522    1.3139 O   0  0  0  0  0  0  0  0  0  0  0  0
   -2.1067   -2.4938   -0.2790 C   0  0  0  0  0  0  0  0  0  0  0  0
   -1.2070   -3.1032   -1.1755 C   0  0  0  0  0  0  0  0  0  0  0  0
   -1.3816   -4.4373   -1.5570 C   0  0  0  0  0  0  0  0  0  0  0  0
   -2.4515   -5.1782   -1.0501 C   0  0  0  0  0  0  0  0  0  0  0  0
   -2.6179   -6.4714   -1.4218 F   0  0  0  0  0  0  0  0  0  0  0  0
   -3.3491   -4.5860   -0.1591 C   0  0  0  0  0  0  0  0  0  0  0  0
   -3.1794   -3.2527    0.2259 C   0  0  0  0  0  0  0  0  0  0  0  0
   -2.2037    2.2979    2.6348 H   0  0  0  0  0  0  0  0  0  0  0  0
   -3.5480    2.4771    1.4286 H   0  0  0  0  0  0  0  0  0  0  0  0
   -3.6596    1.2400    2.7399 H   0  0  0  0  0  0  0  0  0  0  0  0
   -0.2236   -0.3386   -1.0691 H   0  0  0  0  0  0  0  0  0  0  0  0
    1.3871    3.4962   -1.6986 H   0  0  0  0  0  0  0  0  0  0  0  0
    1.1275    4.4372   -0.1628 H   0  0  0  0  0  0  0  0  0  0  0  0
    3.6606    3.7000   -1.0689 H   0  0  0  0  0  0  0  0  0  0  0  0
    3.2098    3.9551    0.6602 H   0  0  0  0  0  0  0  0  0  0  0  0
    1.7377    1.4563    1.6683 H   0  0  0  0  0  0  0  0  0  0  0  0
    1.5909    0.3488    0.2511 H   0  0  0  0  0  0  0  0  0  0  0  0
    3.6777   -0.4356    1.5680 H   0  0  0  0  0  0  0  0  0  0  0  0
    5.1117    0.1546    2.4752 H   0  0  0  0  0  0  0  0  0  0  0  0
   -0.3662   -2.5589   -1.5819 H   0  0  0  0  0  0  0  0  0  0  0  0
   -0.6846   -4.8966   -2.2462 H   0  0  0  0  0  0  0  0  0  0  0  0
   -4.1783   -5.1597    0.2348 H   0  0  0  0  0  0  0  0  0  0  0  0
   -3.8890   -2.8162    0.9176 H   0  0  0  0  0  0  0  0  0  0  0  0
  1  2  1  0
  2  3  1  0
  3  4  2  0
  4  5  1  0
  5  6  2  0
  6  7  1  0
  7  8  2  0
  7  9  1  0
  9 10  1  0
 10 11  1  0
 11 12  1  0
 12 13  1  0
 13 14  3  0
 12 15  1  0
 12 16  1  0
 16 17  1  0
 16 18  2  0
  4 19  1  0
 19 20  2  0
 20 21  1  0
 21 22  2  0
 22 23  1  0
 22 24  1  0
 24 25  2  0
  6  2  1  0
 15  9  1  0
 19 25  1  0
  1 26  1  0
  1 27  1  0
  1 28  1  0
  5 29  1  0
 10 30  1  0
 10 31  1  0
 11 32  1  0
 11 33  1  0
 15 34  1  0
 15 35  1  0
 17 36  1  0
 17 37  1  0
 20 38  1  0
 21 39  1  0
 24 40  1  0
 25 41  1  0
M  END
$$$$
