
     RDKit          3D

 35 37  0  0  0  0  0  0  0  0999 V2000
    0.3408    2.0499   -1.0407 O   0  0  0  0  0  0  0  0  0  0  0  0
   -0.1802    0.9763   -0.6336 C   0  0  0  0  0  0  0  0  0  0  0  0
   -1.5272    1.0077   -0.1522 N   0  0  0  0  0  0  0  0  0  0  0  0
   -2.5049    0.1025    0.4856 C   0  0  0  0  0  0  0  0  0  0  0  0
   -3.5732    1.1351    0.6767 C   0  0  0  0  0  0  0  0  0  0  0  0
   -4.8517    0.9010   -0.1410 C   0  0  0  0  0  0  0  0  0  0  0  0
   -4.5716    0.5986   -1.4641 F   0  0  0  0  0  0  0  0  0  0  0  0
   -2.5681    2.0372    0.0281 C   0  0  0  0  0  0  0  0  0  0  0  0
    0.6539   -0.2985   -0.5700 C   0  0  0  0  0  0  0  0  0  0  0  0
   -0.1889   -1.4269   -0.5469 O   0  0  0  0  0  0  0  0  0  0  0  0
    1.5681   -0.3735   -1.8259 C   0  0  0  0  0  0  0  0  0  0  0  0
    2.5180   -1.5253   -1.7219 C   0  0  0  0  0  0  0  0  0  0  0  0
    2.8492   -2.1745   -2.7493 O   0  0  0  0  0  0  0  0  0  0  0  0
    3.1054   -1.8323   -0.4572 N   0  0  0  0  0  0  0  0  0  0  0  0
    2.6737   -1.1468    0.7268 C   0  0  0  0  0  0  0  0  0  0  0  0
    3.4086   -1.2850    1.9126 C   0  0  0  0  0  0  0  0  0  0  0  0
    2.9936   -0.6423    3.0789 C   0  0  0  0  0  0  0  0  0  0  0  0
    1.8324    0.1311    3.0756 C   0  0  0  0  0  0  0  0  0  0  0  0
    1.2507    0.9836    4.6829 Br  0  0  0  0  0  0  0  0  0  0  0  0
    1.0851    0.2698    1.9025 C   0  0  0  0  0  0  0  0  0  0  0  0
    1.5073   -0.3420    0.7015 C   0  0  0  0  0  0  0  0  0  0  0  0
   -2.1132   -0.2817    1.4535 H   0  0  0  0  0  0  0  0  0  0  0  0
   -2.7927   -0.7244   -0.2008 H   0  0  0  0  0  0  0  0  0  0  0  0
   -3.7579    1.3816    1.7456 H   0  0  0  0  0  0  0  0  0  0  0  0
   -5.4244    0.0619    0.3067 H   0  0  0  0  0  0  0  0  0  0  0  0
   -5.4816    1.8144   -0.1059 H   0  0  0  0  0  0  0  0  0  0  0  0
   -2.2139    2.8356    0.7176 H   0  0  0  0  0  0  0  0  0  0  0  0
   -2.8879    2.4528   -0.9535 H   0  0  0  0  0  0  0  0  0  0  0  0
   -0.7148   -1.4361   -1.3900 H   0  0  0  0  0  0  0  0  0  0  0  0
    0.9532   -0.4689   -2.7480 H   0  0  0  0  0  0  0  0  0  0  0  0
    2.1789    0.5509   -1.9170 H   0  0  0  0  0  0  0  0  0  0  0  0
    3.8698   -2.5433   -0.4062 H   0  0  0  0  0  0  0  0  0  0  0  0
    4.3040   -1.8934    1.9317 H   0  0  0  0  0  0  0  0  0  0  0  0
    3.5698   -0.7551    3.9883 H   0  0  0  0  0  0  0  0  0  0  0  0
    0.1746    0.8506    1.9427 H   0  0  0  0  0  0  0  0  0  0  0  0
  1  2  2  0
  2  3  1  0
  3  4  1  0
  4  5  1  0
  5  6  1  0
  6  7  1  0
  5  8  1  0
  2  9  1  0
  9 10  1  0
  9 11  1  0
 11 12  1  0
 12 13  2  0
 12 14  1  0
 14 15  1  0
 15 16  2  0
 16 17  1  0
 17 18  2  0
 18 19  1  0
 18 20  1  0
 20 21  2  0
  8  3  1  0
 21  9  1  0
 15 21  1  0
  4 22  1  0
  4 23  1  0
  5 24  1  0
  6 25  1  0
  6 26  1  0
  8 27  1  0
  8 28  1  0
 10 29  1  0
 11 30  1  0
 11 31  1  0
 14 32  1  0
 16 33  1  0
 17 34  1  0
 20 35  1  0
M  END
$$$$
