
     RDKit          3D

 47 50  0  0  0  0  0  0  0  0999 V2000
   -3.6936   -0.4901   -1.4822 C   0  0  0  0  0  0  0  0  0  0  0  0
   -2.5684    0.2226   -0.9824 O   0  0  0  0  0  0  0  0  0  0  0  0
   -1.3201    0.1906   -1.6099 C   0  0  0  0  0  0  0  0  0  0  0  0
   -1.1337   -0.5398   -2.6228 O   0  0  0  0  0  0  0  0  0  0  0  0
   -0.1902    1.0086   -1.0386 C   0  0  0  0  0  0  0  0  0  0  0  0
    0.7446    1.5515   -2.1318 C   0  0  0  0  0  0  0  0  0  0  0  0
    1.9552    2.2376   -1.5396 C   0  0  0  0  0  0  0  0  0  0  0  0
    2.7186    3.0920   -2.3511 C   0  0  0  0  0  0  0  0  0  0  0  0
    3.8763    3.6942   -1.8527 C   0  0  0  0  0  0  0  0  0  0  0  0
    4.2887    3.4427   -0.5432 C   0  0  0  0  0  0  0  0  0  0  0  0
    3.5479    2.5844    0.2722 C   0  0  0  0  0  0  0  0  0  0  0  0
    2.3894    1.9621   -0.2186 C   0  0  0  0  0  0  0  0  0  0  0  0
    1.5762    1.0877    0.7061 C   0  0  0  0  0  0  0  0  0  0  0  0
    0.6169    0.2756   -0.0505 N   0  0  0  0  0  0  0  0  0  0  0  0
    0.8488   -1.1417   -0.1509 C   0  0  0  0  0  0  0  0  0  0  0  0
    1.9852   -1.5645   -0.4957 O   0  0  0  0  0  0  0  0  0  0  0  0
   -0.2516   -2.1288    0.1325 C   0  0  0  0  0  0  0  0  0  0  0  0
    0.1389   -3.2177    1.1341 C   0  0  0  0  0  0  0  0  0  0  0  0
   -0.8664   -2.1391    1.5364 C   0  0  0  0  0  0  0  0  0  0  0  0
   -0.3768   -1.1431    2.6030 C   0  0  0  0  0  0  0  0  0  0  0  0
   -0.9174   -1.5182    4.0039 C   0  0  0  0  0  0  0  0  0  0  0  0
   -1.8472   -2.5913    3.9922 O   0  0  0  0  0  0  0  0  0  0  0  0
   -2.8666   -2.3461    3.0434 C   0  0  0  0  0  0  0  0  0  0  0  0
   -2.3360   -2.5831    1.6252 C   0  0  0  0  0  0  0  0  0  0  0  0
   -3.9562   -0.1207   -2.4959 H   0  0  0  0  0  0  0  0  0  0  0  0
   -4.5571   -0.3294   -0.8052 H   0  0  0  0  0  0  0  0  0  0  0  0
   -3.4682   -1.5768   -1.5275 H   0  0  0  0  0  0  0  0  0  0  0  0
   -0.6544    1.8839   -0.5302 H   0  0  0  0  0  0  0  0  0  0  0  0
    0.1809    2.2643   -2.7733 H   0  0  0  0  0  0  0  0  0  0  0  0
    1.1079    0.7168   -2.7699 H   0  0  0  0  0  0  0  0  0  0  0  0
    2.4174    3.2895   -3.3725 H   0  0  0  0  0  0  0  0  0  0  0  0
    4.4559    4.3554   -2.4839 H   0  0  0  0  0  0  0  0  0  0  0  0
    5.1837    3.9148   -0.1587 H   0  0  0  0  0  0  0  0  0  0  0  0
    3.8759    2.4052    1.2887 H   0  0  0  0  0  0  0  0  0  0  0  0
    1.0181    1.7409    1.4105 H   0  0  0  0  0  0  0  0  0  0  0  0
    2.2504    0.4417    1.3114 H   0  0  0  0  0  0  0  0  0  0  0  0
   -0.8731   -2.5066   -0.7069 H   0  0  0  0  0  0  0  0  0  0  0  0
   -0.2783   -4.2156    0.8820 H   0  0  0  0  0  0  0  0  0  0  0  0
    1.1560   -3.1211    1.5724 H   0  0  0  0  0  0  0  0  0  0  0  0
    0.7322   -1.0785    2.6377 H   0  0  0  0  0  0  0  0  0  0  0  0
   -0.7627   -0.1368    2.3326 H   0  0  0  0  0  0  0  0  0  0  0  0
   -1.3737   -0.6273    4.4907 H   0  0  0  0  0  0  0  0  0  0  0  0
   -0.0613   -1.8208    4.6434 H   0  0  0  0  0  0  0  0  0  0  0  0
   -3.7098   -3.0426    3.2366 H   0  0  0  0  0  0  0  0  0  0  0  0
   -3.2753   -1.3129    3.1407 H   0  0  0  0  0  0  0  0  0  0  0  0
   -2.4499   -3.6586    1.3679 H   0  0  0  0  0  0  0  0  0  0  0  0
   -2.9474   -1.9948    0.9103 H   0  0  0  0  0  0  0  0  0  0  0  0
  1  2  1  0
  2  3  1  0
  3  4  2  0
  3  5  1  0
  5  6  1  0
  6  7  1  0
  7  8  2  0
  8  9  1  0
  9 10  2  0
 10 11  1  0
 11 12  2  0
 12 13  1  0
 13 14  1  0
 14 15  1  0
 15 16  2  0
 15 17  1  0
 17 18  1  0
 18 19  1  0
 19 20  1  0
 20 21  1  0
 21 22  1  0
 22 23  1  0
 23 24  1  0
 14  5  1  0
 12  7  1  0
 19 17  1  0
 24 19  1  0
  1 25  1  0
  1 26  1  0
  1 27  1  0
  5 28  1  0
  6 29  1  0
  6 30  1  0
  8 31  1  0
  9 32  1  0
 10 33  1  0
 11 34  1  0
 13 35  1  0
 13 36  1  0
 17 37  1  0
 18 38  1  0
 18 39  1  0
 20 40  1  0
 20 41  1  0
 21 42  1  0
 21 43  1  0
 23 44  1  0
 23 45  1  0
 24 46  1  0
 24 47  1  0
M  END
$$$$
