
     RDKit          3D

 44 47  0  0  0  0  0  0  0  0999 V2000
   -1.2105    1.2680    2.7010 O   0  0  0  0  0  0  0  0  0  0  0  0
   -0.6995    0.8025    1.6455 C   0  0  0  0  0  0  0  0  0  0  0  0
    0.1248   -0.3726    1.7130 N   0  0  0  0  0  0  0  0  0  0  0  0
    0.1561   -1.2382    2.8996 C   0  0  0  0  0  0  0  0  0  0  0  0
   -1.1653   -2.0136    3.0379 C   0  0  0  0  0  0  0  0  0  0  0  0
   -1.2491   -3.1234    1.9824 C   0  0  0  0  0  0  0  0  0  0  0  0
   -0.1574   -4.0157    2.1055 O   0  0  0  0  0  0  0  0  0  0  0  0
    1.0518   -3.3436    1.8064 C   0  0  0  0  0  0  0  0  0  0  0  0
    1.3321   -2.2297    2.8277 C   0  0  0  0  0  0  0  0  0  0  0  0
   -0.9464    1.4850    0.3538 C   0  0  0  0  0  0  0  0  0  0  0  0
   -1.3173    2.8379    0.3244 C   0  0  0  0  0  0  0  0  0  0  0  0
   -1.5497    3.4599   -0.8604 N   0  0  0  0  0  0  0  0  0  0  0  0
   -1.4454    2.8081   -2.0473 C   0  0  0  0  0  0  0  0  0  0  0  0
   -1.0909    1.4501   -2.0819 C   0  0  0  0  0  0  0  0  0  0  0  0
   -0.8460    0.7934   -0.8644 C   0  0  0  0  0  0  0  0  0  0  0  0
   -0.9825    0.7232   -3.3725 C   0  0  0  0  0  0  0  0  0  0  0  0
   -1.9139    0.9634   -4.4153 C   0  0  0  0  0  0  0  0  0  0  0  0
   -1.8147    0.2754   -5.6356 C   0  0  0  0  0  0  0  0  0  0  0  0
   -0.7822   -0.6441   -5.7929 C   0  0  0  0  0  0  0  0  0  0  0  0
   -0.5225   -1.4091   -6.9084 O   0  0  0  0  0  0  0  0  0  0  0  0
    0.6239   -2.2302   -6.6852 C   0  0  0  0  0  0  0  0  0  0  0  0
    1.1043   -1.9056   -5.2490 C   0  0  0  0  0  0  0  0  0  0  0  0
    0.1203   -0.8863   -4.8006 C   0  0  0  0  0  0  0  0  0  0  0  0
    0.0509   -0.2206   -3.5770 C   0  0  0  0  0  0  0  0  0  0  0  0
    0.7753   -0.5686    0.9193 H   0  0  0  0  0  0  0  0  0  0  0  0
    0.2997   -0.6029    3.8015 H   0  0  0  0  0  0  0  0  0  0  0  0
   -2.0353   -1.3308    2.9340 H   0  0  0  0  0  0  0  0  0  0  0  0
   -1.2157   -2.4733    4.0493 H   0  0  0  0  0  0  0  0  0  0  0  0
   -1.3054   -2.6919    0.9566 H   0  0  0  0  0  0  0  0  0  0  0  0
   -2.1874   -3.6942    2.1449 H   0  0  0  0  0  0  0  0  0  0  0  0
    1.0406   -2.9435    0.7674 H   0  0  0  0  0  0  0  0  0  0  0  0
    1.8813   -4.0799    1.8549 H   0  0  0  0  0  0  0  0  0  0  0  0
    1.4813   -2.6912    3.8286 H   0  0  0  0  0  0  0  0  0  0  0  0
    2.2691   -1.6959    2.5579 H   0  0  0  0  0  0  0  0  0  0  0  0
   -1.4116    3.4050    1.2415 H   0  0  0  0  0  0  0  0  0  0  0  0
   -1.6258    3.3563   -2.9627 H   0  0  0  0  0  0  0  0  0  0  0  0
   -0.6185   -0.2649   -0.8682 H   0  0  0  0  0  0  0  0  0  0  0  0
   -2.7253    1.6668   -4.2788 H   0  0  0  0  0  0  0  0  0  0  0  0
   -2.5251    0.4526   -6.4323 H   0  0  0  0  0  0  0  0  0  0  0  0
    1.4114   -1.9850   -7.4294 H   0  0  0  0  0  0  0  0  0  0  0  0
    0.3411   -3.3009   -6.7738 H   0  0  0  0  0  0  0  0  0  0  0  0
    2.1297   -1.4775   -5.2559 H   0  0  0  0  0  0  0  0  0  0  0  0
    1.0562   -2.8039   -4.5968 H   0  0  0  0  0  0  0  0  0  0  0  0
    0.7919   -0.4213   -2.8135 H   0  0  0  0  0  0  0  0  0  0  0  0
  1  2  2  0
  2  3  1  0
  3  4  1  0
  4  5  1  0
  5  6  1  0
  6  7  1  0
  7  8  1  0
  8  9  1  0
  2 10  1  0
 10 11  2  0
 11 12  1  0
 12 13  2  0
 13 14  1  0
 14 15  2  0
 14 16  1  0
 16 17  2  0
 17 18  1  0
 18 19  2  0
 19 20  1  0
 20 21  1  0
 21 22  1  0
 22 23  1  0
 23 24  2  0
  9  4  1  0
 10 15  1  0
 24 16  1  0
 23 19  1  0
  3 25  1  0
  4 26  1  0
  5 27  1  0
  5 28  1  0
  6 29  1  0
  6 30  1  0
  8 31  1  0
  8 32  1  0
  9 33  1  0
  9 34  1  0
 11 35  1  0
 13 36  1  0
 15 37  1  0
 17 38  1  0
 18 39  1  0
 21 40  1  0
 21 41  1  0
 22 42  1  0
 22 43  1  0
 24 44  1  0
M  END
$$$$
