
     RDKit          3D

 45 48  0  0  0  0  0  0  0  0999 V2000
   -1.5051   -2.0834   -2.2770 O   0  0  0  0  0  0  0  0  0  0  0  0
   -1.6400   -1.2251   -1.3624 C   0  0  0  0  0  0  0  0  0  0  0  0
   -2.9791   -0.6474   -1.1124 C   0  0  0  0  0  0  0  0  0  0  0  0
   -4.1368   -1.4430   -1.2932 C   0  0  0  0  0  0  0  0  0  0  0  0
   -5.4150   -0.9088   -1.0687 C   0  0  0  0  0  0  0  0  0  0  0  0
   -5.5097    0.4219   -0.6764 C   0  0  0  0  0  0  0  0  0  0  0  0
   -6.8831    1.3259   -0.3475 S   0  0  0  0  0  0  0  0  0  0  0  0
   -5.9815    2.7172   -0.0031 C   0  0  0  0  0  0  0  0  0  0  0  0
   -4.6498    2.5016   -0.1366 N   0  0  0  0  0  0  0  0  0  0  0  0
   -4.3934    1.2216   -0.5100 C   0  0  0  0  0  0  0  0  0  0  0  0
   -3.1158    0.7055   -0.7292 C   0  0  0  0  0  0  0  0  0  0  0  0
   -0.4917   -0.8328   -0.5857 N   0  0  0  0  0  0  0  0  0  0  0  0
    0.8454   -0.9115   -1.1888 C   0  0  0  0  0  0  0  0  0  0  0  0
    1.8193    0.0011   -0.4361 C   0  0  0  0  0  0  0  0  0  0  0  0
    1.9410   -0.3552    1.0893 C   0  0  0  0  0  0  0  0  0  0  0  0
    2.1552    0.9550    1.9015 C   0  0  0  0  0  0  0  0  0  0  0  0
    3.4699    1.6745    1.5416 C   0  0  0  0  0  0  0  0  0  0  0  0
    4.6811    0.7252    1.3816 C   0  0  0  0  0  0  0  0  0  0  0  0
    5.0397    0.6332    0.0264 O   0  0  0  0  0  0  0  0  0  0  0  0
    4.3995   -0.6742    1.9503 C   0  0  0  0  0  0  0  0  0  0  0  0
    3.1519   -1.3306    1.3257 C   0  0  0  0  0  0  0  0  0  0  0  0
    0.6282   -1.0443    1.5968 C   0  0  0  0  0  0  0  0  0  0  0  0
   -0.6217   -0.5595    0.8544 C   0  0  0  0  0  0  0  0  0  0  0  0
   -4.0476   -2.4790   -1.5958 H   0  0  0  0  0  0  0  0  0  0  0  0
   -6.3014   -1.5158   -1.1990 H   0  0  0  0  0  0  0  0  0  0  0  0
   -6.4017    3.6702    0.2878 H   0  0  0  0  0  0  0  0  0  0  0  0
   -2.2514    1.3489   -0.6276 H   0  0  0  0  0  0  0  0  0  0  0  0
    0.8008   -0.5817   -2.2501 H   0  0  0  0  0  0  0  0  0  0  0  0
    1.2072   -1.9621   -1.1613 H   0  0  0  0  0  0  0  0  0  0  0  0
    2.8049   -0.0331   -0.9443 H   0  0  0  0  0  0  0  0  0  0  0  0
    1.4438    1.0411   -0.5623 H   0  0  0  0  0  0  0  0  0  0  0  0
    1.3062    1.6558    1.7443 H   0  0  0  0  0  0  0  0  0  0  0  0
    2.1738    0.7201    2.9892 H   0  0  0  0  0  0  0  0  0  0  0  0
    3.6874    2.4132    2.3441 H   0  0  0  0  0  0  0  0  0  0  0  0
    3.3234    2.2624    0.6090 H   0  0  0  0  0  0  0  0  0  0  0  0
    5.5351    1.1635    1.9500 H   0  0  0  0  0  0  0  0  0  0  0  0
    5.9603    0.2624   -0.0050 H   0  0  0  0  0  0  0  0  0  0  0  0
    4.2569   -0.5909    3.0505 H   0  0  0  0  0  0  0  0  0  0  0  0
    5.2820   -1.3308    1.7887 H   0  0  0  0  0  0  0  0  0  0  0  0
    3.4455   -1.8267    0.3747 H   0  0  0  0  0  0  0  0  0  0  0  0
    2.8684   -2.1601    2.0103 H   0  0  0  0  0  0  0  0  0  0  0  0
    0.4914   -0.8953    2.6904 H   0  0  0  0  0  0  0  0  0  0  0  0
    0.6826   -2.1443    1.4349 H   0  0  0  0  0  0  0  0  0  0  0  0
   -0.7620    0.5286    1.0213 H   0  0  0  0  0  0  0  0  0  0  0  0
   -1.5039   -1.0950    1.2692 H   0  0  0  0  0  0  0  0  0  0  0  0
  1  2  2  0
  2  3  1  0
  3  4  2  0
  4  5  1  0
  5  6  2  0
  6  7  1  0
  7  8  1  0
  8  9  2  0
  9 10  1  0
 10 11  2  0
  2 12  1  0
 12 13  1  0
 13 14  1  0
 14 15  1  0
 15 16  1  0
 16 17  1  0
 17 18  1  0
 18 19  1  0
 18 20  1  0
 20 21  1  0
 15 22  1  0
 22 23  1  0
  3 11  1  0
  6 10  1  0
 23 12  1  0
 21 15  1  0
  4 24  1  0
  5 25  1  0
  8 26  1  0
 11 27  1  0
 13 28  1  0
 13 29  1  0
 14 30  1  0
 14 31  1  0
 16 32  1  0
 16 33  1  0
 17 34  1  0
 17 35  1  0
 18 36  1  0
 19 37  1  0
 20 38  1  0
 20 39  1  0
 21 40  1  0
 21 41  1  0
 22 42  1  0
 22 43  1  0
 23 44  1  0
 23 45  1  0
M  END
$$$$
