
     RDKit          3D

 44 47  0  0  0  0  0  0  0  0999 V2000
   -1.1308    3.1066   -1.3787 C   0  0  0  0  0  0  0  0  0  0  0  0
   -0.7452    2.1758   -0.2331 C   0  0  0  0  0  0  0  0  0  0  0  0
   -1.9734    1.4788    0.3578 C   0  0  0  0  0  0  0  0  0  0  0  0
   -1.5558    0.5002    1.3602 N   0  0  0  0  0  0  0  0  0  0  0  0
   -1.2626   -0.7627    1.0685 N   0  0  0  0  0  0  0  0  0  0  0  0
   -0.8296   -1.3589    2.2047 C   0  0  0  0  0  0  0  0  0  0  0  0
   -0.3719   -2.7148    2.2804 N   0  0  0  0  0  0  0  0  0  0  0  0
   -0.2725   -3.5600    1.0937 C   0  0  0  0  0  0  0  0  0  0  0  0
    0.7917   -3.0410    0.1797 C   0  0  0  0  0  0  0  0  0  0  0  0
    0.5545   -2.5547   -1.0546 N   0  0  0  0  0  0  0  0  0  0  0  0
    1.8025   -2.2094   -1.4403 C   0  0  0  0  0  0  0  0  0  0  0  0
    2.1173   -1.5733   -2.7558 C   0  0  0  0  0  0  0  0  0  0  0  0
    1.6516   -0.1125   -2.7545 C   0  0  0  0  0  0  0  0  0  0  0  0
    2.4096    0.7977   -3.7091 C   0  0  0  0  0  0  0  0  0  0  0  0
    2.6460    0.9012   -2.2104 C   0  0  0  0  0  0  0  0  0  0  0  0
    2.7303   -2.4632   -0.4952 N   0  0  0  0  0  0  0  0  0  0  0  0
    2.0644   -2.9806    0.4911 O   0  0  0  0  0  0  0  0  0  0  0  0
   -0.8339   -0.4406    3.2339 C   0  0  0  0  0  0  0  0  0  0  0  0
   -0.4363   -0.5089    4.5671 C   0  0  0  0  0  0  0  0  0  0  0  0
   -0.5222    0.6691    5.3315 C   0  0  0  0  0  0  0  0  0  0  0  0
   -0.9890    1.8703    4.7479 C   0  0  0  0  0  0  0  0  0  0  0  0
   -1.3765    1.9062    3.3946 C   0  0  0  0  0  0  0  0  0  0  0  0
   -1.2887    0.7186    2.6655 C   0  0  0  0  0  0  0  0  0  0  0  0
   -1.8434    3.8825   -1.0247 H   0  0  0  0  0  0  0  0  0  0  0  0
   -0.2212    3.6095   -1.7697 H   0  0  0  0  0  0  0  0  0  0  0  0
   -1.5996    2.5284   -2.2049 H   0  0  0  0  0  0  0  0  0  0  0  0
   -0.2331    2.7644    0.5585 H   0  0  0  0  0  0  0  0  0  0  0  0
   -0.0361    1.4104   -0.6118 H   0  0  0  0  0  0  0  0  0  0  0  0
   -2.6578    2.2264    0.8154 H   0  0  0  0  0  0  0  0  0  0  0  0
   -2.5349    0.9554   -0.4486 H   0  0  0  0  0  0  0  0  0  0  0  0
   -0.1072   -3.1160    3.2079 H   0  0  0  0  0  0  0  0  0  0  0  0
   -0.0093   -4.5964    1.3958 H   0  0  0  0  0  0  0  0  0  0  0  0
   -1.2528   -3.5913    0.5715 H   0  0  0  0  0  0  0  0  0  0  0  0
    3.2077   -1.6636   -2.9548 H   0  0  0  0  0  0  0  0  0  0  0  0
    1.5786   -2.1179   -3.5606 H   0  0  0  0  0  0  0  0  0  0  0  0
    0.5717    0.1348   -2.6489 H   0  0  0  0  0  0  0  0  0  0  0  0
    1.8142    1.6391   -4.1251 H   0  0  0  0  0  0  0  0  0  0  0  0
    3.2609    0.3442   -4.2614 H   0  0  0  0  0  0  0  0  0  0  0  0
    3.6217    0.4875   -1.8652 H   0  0  0  0  0  0  0  0  0  0  0  0
    2.1761    1.7873   -1.7344 H   0  0  0  0  0  0  0  0  0  0  0  0
   -0.0660   -1.4275    5.0004 H   0  0  0  0  0  0  0  0  0  0  0  0
   -0.2183    0.6586    6.3702 H   0  0  0  0  0  0  0  0  0  0  0  0
   -1.0398    2.7720    5.3439 H   0  0  0  0  0  0  0  0  0  0  0  0
   -1.7176    2.8297    2.9402 H   0  0  0  0  0  0  0  0  0  0  0  0
  1  2  1  0
  2  3  1  0
  3  4  1  0
  4  5  1  0
  5  6  2  0
  6  7  1  0
  7  8  1  0
  8  9  1  0
  9 10  2  0
 10 11  1  0
 11 12  1  0
 12 13  1  0
 13 14  1  0
 14 15  1  0
 11 16  2  0
 16 17  1  0
  6 18  1  0
 18 19  2  0
 19 20  1  0
 20 21  2  0
 21 22  1  0
 22 23  2  0
 23  4  1  0
 17  9  1  0
 15 13  1  0
 18 23  1  0
  1 24  1  0
  1 25  1  0
  1 26  1  0
  2 27  1  0
  2 28  1  0
  3 29  1  0
  3 30  1  0
  7 31  1  0
  8 32  1  0
  8 33  1  0
 12 34  1  0
 12 35  1  0
 13 36  1  0
 14 37  1  0
 14 38  1  0
 15 39  1  0
 15 40  1  0
 19 41  1  0
 20 42  1  0
 21 43  1  0
 22 44  1  0
M  END
$$$$
