
     RDKit          3D

 38 40  0  0  0  0  0  0  0  0999 V2000
   -2.2976    1.8685    4.6361 N   0  0  0  0  0  0  0  0  0  0  0  0
   -2.0400    1.8181    3.5085 C   0  0  0  0  0  0  0  0  0  0  0  0
   -1.7208    1.7562    2.1065 C   0  0  0  0  0  0  0  0  0  0  0  0
   -1.3825    0.5371    1.5129 C   0  0  0  0  0  0  0  0  0  0  0  0
   -1.0733    0.5133    0.1397 C   0  0  0  0  0  0  0  0  0  0  0  0
   -1.1258    1.6813   -0.5574 N   0  0  0  0  0  0  0  0  0  0  0  0
   -1.4596    2.8562    0.0368 C   0  0  0  0  0  0  0  0  0  0  0  0
   -1.7443    2.8895    1.3625 N   0  0  0  0  0  0  0  0  0  0  0  0
   -0.6816   -0.7095   -0.5392 N   0  0  0  0  0  0  0  0  0  0  0  0
   -0.0202   -0.6256   -1.8546 C   0  0  0  0  0  0  0  0  0  0  0  0
    1.4265   -0.1193   -1.7246 C   0  0  0  0  0  0  0  0  0  0  0  0
    2.3351   -1.1402   -1.0177 C   0  0  1  0  0  0  0  0  0  0  0  0
    3.8027   -0.7111   -0.9736 C   0  0  0  0  0  0  0  0  0  0  0  0
    3.7509   -0.6930    0.5479 C   0  0  2  0  0  0  0  0  0  0  0  0
    4.5447   -1.6811    1.1013 F   0  0  0  0  0  0  0  0  0  0  0  0
    2.2819   -1.0952    0.5111 C   0  0  0  0  0  0  0  0  0  0  0  0
   -1.0263   -2.0389   -0.0063 C   0  0  0  0  0  0  0  0  0  0  0  0
   -2.4884   -2.3039   -0.1777 C   0  0  0  0  0  0  0  0  0  0  0  0
   -3.1309   -2.7087   -1.3420 C   0  0  0  0  0  0  0  0  0  0  0  0
   -4.5292   -2.8054   -1.1925 C   0  0  0  0  0  0  0  0  0  0  0  0
   -5.0286   -2.4767    0.0309 N   0  0  0  0  0  0  0  0  0  0  0  0
   -3.7003   -2.0650    0.9448 S   0  0  0  0  0  0  0  0  0  0  0  0
   -1.3534   -0.3542    2.1240 H   0  0  0  0  0  0  0  0  0  0  0  0
   -1.4817    3.7680   -0.5425 H   0  0  0  0  0  0  0  0  0  0  0  0
   -0.0142   -1.6128   -2.3739 H   0  0  0  0  0  0  0  0  0  0  0  0
   -0.5957    0.0564   -2.5158 H   0  0  0  0  0  0  0  0  0  0  0  0
    1.4534    0.8626   -1.2018 H   0  0  0  0  0  0  0  0  0  0  0  0
    1.8216    0.0447   -2.7523 H   0  0  0  0  0  0  0  0  0  0  0  0
    2.2200   -2.1744   -1.4180 H   0  0  0  0  0  0  0  0  0  0  0  0
    4.4838   -1.4939   -1.3762 H   0  0  0  0  0  0  0  0  0  0  0  0
    3.9923    0.2997   -1.3960 H   0  0  0  0  0  0  0  0  0  0  0  0
    3.9305    0.3120    0.9887 H   0  0  0  0  0  0  0  0  0  0  0  0
    2.0934   -2.0962    0.9569 H   0  0  0  0  0  0  0  0  0  0  0  0
    1.6287   -0.2974    0.9280 H   0  0  0  0  0  0  0  0  0  0  0  0
   -0.4650   -2.8361   -0.5409 H   0  0  0  0  0  0  0  0  0  0  0  0
   -0.7221   -2.1357    1.0546 H   0  0  0  0  0  0  0  0  0  0  0  0
   -2.6116   -2.9247   -2.2736 H   0  0  0  0  0  0  0  0  0  0  0  0
   -5.1751   -3.1132   -2.0071 H   0  0  0  0  0  0  0  0  0  0  0  0
  1  2  3  0
  2  3  1  0
  3  4  2  0
  4  5  1  0
  5  6  2  0
  6  7  1  0
  7  8  2  0
  5  9  1  0
  9 10  1  0
 10 11  1  0
 11 12  1  0
 12 13  1  0
 13 14  1  0
 14 15  1  0
 14 16  1  0
  9 17  1  0
 17 18  1  0
 18 19  2  0
 19 20  1  0
 20 21  2  0
 21 22  1  0
  3  8  1  0
 16 12  1  0
 22 18  1  0
  4 23  1  0
  7 24  1  0
 10 25  1  0
 10 26  1  0
 11 27  1  0
 11 28  1  0
 12 29  1  6
 13 30  1  0
 13 31  1  0
 14 32  1  1
 16 33  1  0
 16 34  1  0
 17 35  1  0
 17 36  1  0
 19 37  1  0
 20 38  1  0
M  END
$$$$
