
     RDKit          3D

 40 42  0  0  0  0  0  0  0  0999 V2000
   -2.3157    0.6259   -5.2081 C   0  0  0  0  0  0  0  0  0  0  0  0
   -1.9824    0.9879   -3.8733 O   0  0  0  0  0  0  0  0  0  0  0  0
   -0.6607    1.0802   -3.4221 C   0  0  0  0  0  0  0  0  0  0  0  0
    0.2881    0.8207   -4.2115 O   0  0  0  0  0  0  0  0  0  0  0  0
   -0.3959    1.4495   -2.0065 C   0  0  0  0  0  0  0  0  0  0  0  0
   -1.4264    1.2520   -1.0691 C   0  0  0  0  0  0  0  0  0  0  0  0
   -1.2382    1.5527    0.2795 C   0  0  0  0  0  0  0  0  0  0  0  0
   -0.0185    2.0714    0.7246 C   0  0  0  0  0  0  0  0  0  0  0  0
    1.0202    2.2711   -0.1934 C   0  0  0  0  0  0  0  0  0  0  0  0
    0.8442    1.9855   -1.5597 C   0  0  0  0  0  0  0  0  0  0  0  0
    1.9881    2.2640   -2.5007 C   0  0  0  0  0  0  0  0  0  0  0  0
    0.2024    2.3359    2.1884 C   0  0  0  0  0  0  0  0  0  0  0  0
    0.7524    1.1458    2.8260 N   0  0  0  0  0  0  0  0  0  0  0  0
    0.0615    0.0797    3.2626 C   0  0  0  0  0  0  0  0  0  0  0  0
    1.0025   -0.8353    3.6784 C   0  0  0  0  0  0  0  0  0  0  0  0
    0.7403   -2.2305    4.1439 C   0  0  0  0  0  0  0  0  0  0  0  0
    0.5823   -3.1125    2.9931 N   0  0  0  0  0  0  0  0  0  0  0  0
   -0.5575   -3.3229    2.3089 C   0  0  0  0  0  0  0  0  0  0  0  0
   -0.2766   -4.1559    1.2480 C   0  0  0  0  0  0  0  0  0  0  0  0
    1.0790   -4.4068    1.3469 C   0  0  0  0  0  0  0  0  0  0  0  0
    1.5832   -3.7544    2.4124 N   0  0  0  0  0  0  0  0  0  0  0  0
    2.2288   -0.3197    3.4578 N   0  0  0  0  0  0  0  0  0  0  0  0
    2.0456    0.8866    2.9393 N   0  0  0  0  0  0  0  0  0  0  0  0
   -3.4192    0.6241   -5.3205 H   0  0  0  0  0  0  0  0  0  0  0  0
   -1.8824    1.3597   -5.9204 H   0  0  0  0  0  0  0  0  0  0  0  0
   -1.9292   -0.3905   -5.4341 H   0  0  0  0  0  0  0  0  0  0  0  0
   -2.3806    0.8410   -1.3750 H   0  0  0  0  0  0  0  0  0  0  0  0
   -2.0439    1.3706    0.9802 H   0  0  0  0  0  0  0  0  0  0  0  0
    1.9696    2.6555    0.1611 H   0  0  0  0  0  0  0  0  0  0  0  0
    2.7890    2.8566   -2.0091 H   0  0  0  0  0  0  0  0  0  0  0  0
    2.4330    1.3071   -2.8450 H   0  0  0  0  0  0  0  0  0  0  0  0
    1.6323    2.8535   -3.3717 H   0  0  0  0  0  0  0  0  0  0  0  0
   -0.7542    2.6177    2.6809 H   0  0  0  0  0  0  0  0  0  0  0  0
    0.9017    3.1896    2.3244 H   0  0  0  0  0  0  0  0  0  0  0  0
   -1.0150   -0.0327    3.2397 H   0  0  0  0  0  0  0  0  0  0  0  0
    1.5880   -2.5801    4.7716 H   0  0  0  0  0  0  0  0  0  0  0  0
   -0.1794   -2.2519    4.7680 H   0  0  0  0  0  0  0  0  0  0  0  0
   -1.5195   -2.8917    2.5543 H   0  0  0  0  0  0  0  0  0  0  0  0
   -0.9629   -4.5222    0.4966 H   0  0  0  0  0  0  0  0  0  0  0  0
    1.6641   -5.0207    0.6755 H   0  0  0  0  0  0  0  0  0  0  0  0
  1  2  1  0
  2  3  1  0
  3  4  2  0
  3  5  1  0
  5  6  2  0
  6  7  1  0
  7  8  2  0
  8  9  1  0
  9 10  2  0
 10 11  1  0
  8 12  1  0
 12 13  1  0
 13 14  1  0
 14 15  2  0
 15 16  1  0
 16 17  1  0
 17 18  1  0
 18 19  2  0
 19 20  1  0
 20 21  2  0
 15 22  1  0
 22 23  2  0
  5 10  1  0
 23 13  1  0
 21 17  1  0
  1 24  1  0
  1 25  1  0
  1 26  1  0
  6 27  1  0
  7 28  1  0
  9 29  1  0
 11 30  1  0
 11 31  1  0
 11 32  1  0
 12 33  1  0
 12 34  1  0
 14 35  1  0
 16 36  1  0
 16 37  1  0
 18 38  1  0
 19 39  1  0
 20 40  1  0
M  END
$$$$
