
     RDKit          3D

 51 54  0  0  0  0  0  0  0  0999 V2000
    0.1154    2.8556   -0.0705 O   0  0  0  0  0  0  0  0  0  0  0  0
   -1.0356    2.5591    0.3490 C   0  0  0  0  0  0  0  0  0  0  0  0
   -1.5749    3.2302    1.5829 C   0  0  0  0  0  0  0  0  0  0  0  0
   -1.2517    2.4720    2.8890 C   0  0  0  0  0  0  0  0  0  0  0  0
   -1.9324    1.0720    2.9687 C   0  0  0  0  0  0  0  0  0  0  0  0
   -1.2722    0.1531    4.0352 C   0  0  0  0  0  0  0  0  0  0  0  0
   -0.1959   -0.7472    3.4093 C   0  0  0  0  0  0  0  0  0  0  0  0
    1.0889    0.0527    3.5636 C   0  0  0  0  0  0  0  0  0  0  0  0
    0.6389    1.3483    4.2539 C   0  0  0  0  0  0  0  0  0  0  0  0
    0.2728    2.4440    3.2122 C   0  0  0  0  0  0  0  0  0  0  0  0
   -0.5650    0.9906    5.0030 N   0  0  0  0  0  0  0  0  0  0  0  0
   -1.8355    1.6012   -0.3585 N   0  0  0  0  0  0  0  0  0  0  0  0
   -1.2809    0.5486   -1.1633 C   0  0  0  0  0  0  0  0  0  0  0  0
   -0.0531   -0.0502   -0.8337 C   0  0  0  0  0  0  0  0  0  0  0  0
    0.4494   -1.1027   -1.6030 C   0  0  0  0  0  0  0  0  0  0  0  0
   -0.2710   -1.5772   -2.7164 C   0  0  0  0  0  0  0  0  0  0  0  0
    0.2003   -2.6279   -3.5186 O   0  0  0  0  0  0  0  0  0  0  0  0
    1.4115   -3.3419   -3.2882 C   0  0  0  0  0  0  0  0  0  0  0  0
    1.5790   -4.3798   -4.3588 C   0  0  0  0  0  0  0  0  0  0  0  0
    0.9642   -5.6347   -4.2369 C   0  0  0  0  0  0  0  0  0  0  0  0
    1.0915   -6.5760   -5.2604 C   0  0  0  0  0  0  0  0  0  0  0  0
    1.8240   -6.2482   -6.4039 C   0  0  0  0  0  0  0  0  0  0  0  0
    2.3999   -5.0212   -6.5162 N   0  0  0  0  0  0  0  0  0  0  0  0
    2.2908   -4.0881   -5.5329 C   0  0  0  0  0  0  0  0  0  0  0  0
   -1.5024   -0.9848   -3.0367 C   0  0  0  0  0  0  0  0  0  0  0  0
   -2.4321   -1.5524   -4.4171 Cl  0  0  0  0  0  0  0  0  0  0  0  0
   -2.0073    0.0620   -2.2578 C   0  0  0  0  0  0  0  0  0  0  0  0
   -1.1573    4.2581    1.6473 H   0  0  0  0  0  0  0  0  0  0  0  0
   -2.6762    3.3386    1.4891 H   0  0  0  0  0  0  0  0  0  0  0  0
   -1.7156    3.0731    3.7053 H   0  0  0  0  0  0  0  0  0  0  0  0
   -1.9403    0.5670    1.9827 H   0  0  0  0  0  0  0  0  0  0  0  0
   -3.0006    1.2210    3.2411 H   0  0  0  0  0  0  0  0  0  0  0  0
   -2.0493   -0.4640    4.5390 H   0  0  0  0  0  0  0  0  0  0  0  0
   -0.1191   -1.6945    3.9885 H   0  0  0  0  0  0  0  0  0  0  0  0
   -0.3942   -1.0036    2.3456 H   0  0  0  0  0  0  0  0  0  0  0  0
    1.5878    0.2210    2.5845 H   0  0  0  0  0  0  0  0  0  0  0  0
    1.7962   -0.4964    4.2269 H   0  0  0  0  0  0  0  0  0  0  0  0
    1.4342    1.7231    4.9372 H   0  0  0  0  0  0  0  0  0  0  0  0
    0.5562    3.4374    3.6268 H   0  0  0  0  0  0  0  0  0  0  0  0
    0.8769    2.3183    2.2909 H   0  0  0  0  0  0  0  0  0  0  0  0
   -0.2885    0.3965    5.8212 H   0  0  0  0  0  0  0  0  0  0  0  0
   -2.8749    1.6777   -0.2880 H   0  0  0  0  0  0  0  0  0  0  0  0
    0.5055    0.2773    0.0336 H   0  0  0  0  0  0  0  0  0  0  0  0
    1.3955   -1.5446   -1.3190 H   0  0  0  0  0  0  0  0  0  0  0  0
    2.2732   -2.6385   -3.3017 H   0  0  0  0  0  0  0  0  0  0  0  0
    1.3742   -3.8324   -2.2902 H   0  0  0  0  0  0  0  0  0  0  0  0
    0.3884   -5.8813   -3.3528 H   0  0  0  0  0  0  0  0  0  0  0  0
    0.6238   -7.5486   -5.1701 H   0  0  0  0  0  0  0  0  0  0  0  0
    1.9306   -6.9676   -7.2048 H   0  0  0  0  0  0  0  0  0  0  0  0
    2.7571   -3.1202   -5.6671 H   0  0  0  0  0  0  0  0  0  0  0  0
   -2.9636    0.5052   -2.5107 H   0  0  0  0  0  0  0  0  0  0  0  0
  1  2  2  0
  2  3  1  0
  3  4  1  0
  4  5  1  0
  5  6  1  0
  6  7  1  0
  7  8  1  0
  8  9  1  0
  9 10  1  0
  9 11  1  0
  2 12  1  0
 12 13  1  0
 13 14  2  0
 14 15  1  0
 15 16  2  0
 16 17  1  0
 17 18  1  0
 18 19  1  0
 19 20  2  0
 20 21  1  0
 21 22  2  0
 22 23  1  0
 23 24  2  0
 16 25  1  0
 25 26  1  0
 25 27  2  0
 10  4  1  0
 11  6  1  0
 13 27  1  0
 24 19  1  0
  3 28  1  0
  3 29  1  0
  4 30  1  0
  5 31  1  0
  5 32  1  0
  6 33  1  0
  7 34  1  0
  7 35  1  0
  8 36  1  0
  8 37  1  0
  9 38  1  0
 10 39  1  0
 10 40  1  0
 11 41  1  0
 12 42  1  0
 14 43  1  0
 15 44  1  0
 18 45  1  0
 18 46  1  0
 20 47  1  0
 21 48  1  0
 22 49  1  0
 24 50  1  0
 27 51  1  0
M  END
$$$$
