
     RDKit          3D

 44 47  0  0  0  0  0  0  0  0999 V2000
    0.7027    2.6629    3.9277 C   0  0  0  0  0  0  0  0  0  0  0  0
    1.8509    2.1161    3.0694 C   0  0  0  0  0  0  0  0  0  0  0  0
    1.6634    0.5969    2.8246 C   0  0  0  0  0  0  0  0  0  0  0  0
    2.4015    0.1464    1.5603 C   0  0  0  0  0  0  0  0  0  0  0  0
    1.8105    0.8192    0.2800 C   0  0  0  0  0  0  0  0  0  0  0  0
    2.8850    0.9052   -0.8261 C   0  0  0  0  0  0  0  0  0  0  0  0
    2.1306    0.7704   -2.1421 C   0  0  0  0  0  0  0  0  0  0  0  0
    0.8842    0.1042   -1.8061 N   0  0  0  0  0  0  0  0  0  0  0  0
    0.7071   -0.0490   -0.3698 C   0  0  0  0  0  0  0  0  0  0  0  0
   -0.0623   -0.3157   -2.8078 C   0  0  0  0  0  0  0  0  0  0  0  0
    0.1107    0.0393   -4.0055 O   0  0  0  0  0  0  0  0  0  0  0  0
   -1.2304   -1.1585   -2.4806 C   0  0  0  0  0  0  0  0  0  0  0  0
   -2.2347   -1.5165   -3.3632 C   0  0  0  0  0  0  0  0  0  0  0  0
   -3.1086   -2.3043   -2.6440 C   0  0  0  0  0  0  0  0  0  0  0  0
   -2.5804   -2.3787   -1.3704 C   0  0  0  0  0  0  0  0  0  0  0  0
   -1.4650   -1.6907   -1.3030 O   0  0  0  0  0  0  0  0  0  0  0  0
   -3.1569   -3.1110   -0.2397 C   0  0  0  0  0  0  0  0  0  0  0  0
   -4.3041   -3.8163   -0.2925 N   0  0  0  0  0  0  0  0  0  0  0  0
   -4.4520   -4.3091    0.9266 N   0  0  0  0  0  0  0  0  0  0  0  0
   -3.4379   -3.9171    1.6788 N   0  0  0  0  0  0  0  0  0  0  0  0
   -2.6022   -3.1637    0.9855 N   0  0  0  0  0  0  0  0  0  0  0  0
    1.2505    2.2513    0.5910 C   0  0  0  0  0  0  0  0  0  0  0  0
    2.0002    2.9204    1.7498 C   0  0  0  0  0  0  0  0  0  0  0  0
    0.6238    2.0851    4.8737 H   0  0  0  0  0  0  0  0  0  0  0  0
    0.8908    3.7265    4.1879 H   0  0  0  0  0  0  0  0  0  0  0  0
   -0.2624    2.5923    3.3817 H   0  0  0  0  0  0  0  0  0  0  0  0
    2.7900    2.2555    3.6506 H   0  0  0  0  0  0  0  0  0  0  0  0
    0.5855    0.3430    2.7122 H   0  0  0  0  0  0  0  0  0  0  0  0
    2.0502    0.0311    3.7001 H   0  0  0  0  0  0  0  0  0  0  0  0
    3.4734    0.4236    1.6771 H   0  0  0  0  0  0  0  0  0  0  0  0
    2.3749   -0.9622    1.4894 H   0  0  0  0  0  0  0  0  0  0  0  0
    3.5956    0.0519   -0.7432 H   0  0  0  0  0  0  0  0  0  0  0  0
    3.4702    1.8502   -0.7870 H   0  0  0  0  0  0  0  0  0  0  0  0
    1.9145    1.7723   -2.5724 H   0  0  0  0  0  0  0  0  0  0  0  0
    2.7140    0.1636   -2.8684 H   0  0  0  0  0  0  0  0  0  0  0  0
   -0.3129    0.2700   -0.0667 H   0  0  0  0  0  0  0  0  0  0  0  0
    0.8246   -1.1245   -0.1166 H   0  0  0  0  0  0  0  0  0  0  0  0
   -2.3228   -1.2378   -4.4051 H   0  0  0  0  0  0  0  0  0  0  0  0
   -4.0172   -2.7663   -3.0072 H   0  0  0  0  0  0  0  0  0  0  0  0
   -3.3123   -4.1714    2.6833 H   0  0  0  0  0  0  0  0  0  0  0  0
    0.1777    2.2076    0.8797 H   0  0  0  0  0  0  0  0  0  0  0  0
    1.3016    2.9050   -0.3073 H   0  0  0  0  0  0  0  0  0  0  0  0
    3.0775    2.9905    1.4823 H   0  0  0  0  0  0  0  0  0  0  0  0
    1.6355    3.9636    1.8747 H   0  0  0  0  0  0  0  0  0  0  0  0
  1  2  1  0
  2  3  1  0
  3  4  1  0
  4  5  1  0
  5  6  1  0
  6  7  1  0
  7  8  1  0
  8  9  1  0
  8 10  1  0
 10 11  2  0
 10 12  1  0
 12 13  2  0
 13 14  1  0
 14 15  2  0
 15 16  1  0
 15 17  1  0
 17 18  1  0
 18 19  2  0
 19 20  1  0
 20 21  1  0
  5 22  1  0
 22 23  1  0
 23  2  1  0
  9  5  1  0
 16 12  1  0
 17 21  2  0
  1 24  1  0
  1 25  1  0
  1 26  1  0
  2 27  1  0
  3 28  1  0
  3 29  1  0
  4 30  1  0
  4 31  1  0
  6 32  1  0
  6 33  1  0
  7 34  1  0
  7 35  1  0
  9 36  1  0
  9 37  1  0
 13 38  1  0
 14 39  1  0
 20 40  1  0
 22 41  1  0
 22 42  1  0
 23 43  1  0
 23 44  1  0
M  END
$$$$
