
     RDKit          3D

 53 56  0  0  0  0  0  0  0  0999 V2000
   -5.1175   -5.7261    3.8650 C   0  0  0  0  0  0  0  0  0  0  0  0
   -5.2463   -4.6564    4.7541 C   0  0  0  0  0  0  0  0  0  0  0  0
   -4.5277   -3.4758    4.5408 C   0  0  0  0  0  0  0  0  0  0  0  0
   -3.6705   -3.3560    3.4318 C   0  0  0  0  0  0  0  0  0  0  0  0
   -3.5480   -4.4395    2.5426 C   0  0  0  0  0  0  0  0  0  0  0  0
   -4.2694   -5.6175    2.7604 C   0  0  0  0  0  0  0  0  0  0  0  0
   -2.9078   -2.1100    3.2045 C   0  0  0  0  0  0  0  0  0  0  0  0
   -2.9787   -1.0287    4.0075 N   0  0  0  0  0  0  0  0  0  0  0  0
   -2.1710   -0.1627    3.4769 O   0  0  0  0  0  0  0  0  0  0  0  0
   -1.6256   -0.6720    2.3996 C   0  0  0  0  0  0  0  0  0  0  0  0
   -2.0577   -1.9268    2.1708 N   0  0  0  0  0  0  0  0  0  0  0  0
   -0.6260    0.0406    1.5355 C   0  0  0  0  0  0  0  0  0  0  0  0
   -1.1610    1.4109    1.0929 C   0  0  0  0  0  0  0  0  0  0  0  0
   -0.1474    2.1457    0.1859 C   0  0  0  0  0  0  0  0  0  0  0  0
    1.2134    1.5657    0.2674 N   0  0  0  0  0  0  0  0  0  0  0  0
    2.1994    2.4311   -0.4174 C   0  0  0  0  0  0  0  0  0  0  0  0
    3.3409    1.5848   -1.0329 C   0  0  0  0  0  0  0  0  0  0  0  0
    4.4315    2.4760   -1.6729 C   0  0  0  0  0  0  0  0  0  0  0  0
    4.0553    3.1078   -3.0280 C   0  0  0  0  0  0  0  0  0  0  0  0
    4.0492    2.0803   -4.1725 C   0  0  0  0  0  0  0  0  0  0  0  0
    2.7243    1.3047   -4.3200 C   0  0  0  0  0  0  0  0  0  0  0  0
    1.9952    1.1252   -3.0566 N   0  0  0  0  0  0  0  0  0  0  0  0
    2.8141    0.5076   -2.0032 C   0  0  0  0  0  0  0  0  0  0  0  0
    1.5874    1.3197    1.6748 C   0  0  0  0  0  0  0  0  0  0  0  0
    0.7205    0.1954    2.2735 C   0  0  0  0  0  0  0  0  0  0  0  0
   -5.6747   -6.6388    4.0319 H   0  0  0  0  0  0  0  0  0  0  0  0
   -5.9036   -4.7418    5.6097 H   0  0  0  0  0  0  0  0  0  0  0  0
   -4.6420   -2.6594    5.2428 H   0  0  0  0  0  0  0  0  0  0  0  0
   -2.8961   -4.3769    1.6802 H   0  0  0  0  0  0  0  0  0  0  0  0
   -4.1706   -6.4469    2.0721 H   0  0  0  0  0  0  0  0  0  0  0  0
   -0.4580   -0.5719    0.6204 H   0  0  0  0  0  0  0  0  0  0  0  0
   -1.3611    2.0350    1.9926 H   0  0  0  0  0  0  0  0  0  0  0  0
   -2.1236    1.2847    0.5497 H   0  0  0  0  0  0  0  0  0  0  0  0
   -0.1322    3.2252    0.4620 H   0  0  0  0  0  0  0  0  0  0  0  0
   -0.5002    2.0711   -0.8663 H   0  0  0  0  0  0  0  0  0  0  0  0
    1.7122    3.0102   -1.2328 H   0  0  0  0  0  0  0  0  0  0  0  0
    2.6205    3.1833    0.2884 H   0  0  0  0  0  0  0  0  0  0  0  0
    3.8415    1.0452   -0.2002 H   0  0  0  0  0  0  0  0  0  0  0  0
    5.3612    1.8776   -1.7952 H   0  0  0  0  0  0  0  0  0  0  0  0
    4.6892    3.2932   -0.9642 H   0  0  0  0  0  0  0  0  0  0  0  0
    3.0864    3.6469   -2.9733 H   0  0  0  0  0  0  0  0  0  0  0  0
    4.8290    3.8710   -3.2633 H   0  0  0  0  0  0  0  0  0  0  0  0
    4.8890    1.3627   -4.0453 H   0  0  0  0  0  0  0  0  0  0  0  0
    4.2431    2.6135   -5.1289 H   0  0  0  0  0  0  0  0  0  0  0  0
    2.9261    0.3157   -4.7896 H   0  0  0  0  0  0  0  0  0  0  0  0
    2.0659    1.8678   -5.0168 H   0  0  0  0  0  0  0  0  0  0  0  0
    1.1792    0.4990   -3.2528 H   0  0  0  0  0  0  0  0  0  0  0  0
    2.1928   -0.2134   -1.4255 H   0  0  0  0  0  0  0  0  0  0  0  0
    3.6582   -0.0865   -2.4215 H   0  0  0  0  0  0  0  0  0  0  0  0
    1.4577    2.2504    2.2742 H   0  0  0  0  0  0  0  0  0  0  0  0
    2.6540    1.0195    1.7571 H   0  0  0  0  0  0  0  0  0  0  0  0
    1.2709   -0.7694    2.2132 H   0  0  0  0  0  0  0  0  0  0  0  0
    0.5543    0.4178    3.3512 H   0  0  0  0  0  0  0  0  0  0  0  0
  1  2  2  0
  2  3  1  0
  3  4  2  0
  4  5  1  0
  5  6  2  0
  4  7  1  0
  7  8  2  0
  8  9  1  0
  9 10  1  0
 10 11  2  0
 10 12  1  0
 12 13  1  0
 13 14  1  0
 14 15  1  0
 15 16  1  0
 16 17  1  0
 17 18  1  0
 18 19  1  0
 19 20  1  0
 20 21  1  0
 21 22  1  0
 22 23  1  0
 15 24  1  0
 24 25  1  0
  1  6  1  0
 11  7  1  0
 25 12  1  0
 23 17  1  0
  1 26  1  0
  2 27  1  0
  3 28  1  0
  5 29  1  0
  6 30  1  0
 12 31  1  0
 13 32  1  0
 13 33  1  0
 14 34  1  0
 14 35  1  0
 16 36  1  0
 16 37  1  0
 17 38  1  0
 18 39  1  0
 18 40  1  0
 19 41  1  0
 19 42  1  0
 20 43  1  0
 20 44  1  0
 21 45  1  0
 21 46  1  0
 22 47  1  0
 23 48  1  0
 23 49  1  0
 24 50  1  0
 24 51  1  0
 25 52  1  0
 25 53  1  0
M  END
$$$$
