
     RDKit          3D

 50 53  0  0  0  0  0  0  0  0999 V2000
    1.6077   -0.6618    1.6806 O   0  0  0  0  0  0  0  0  0  0  0  0
    0.5795   -0.6460    0.9501 C   0  0  0  0  0  0  0  0  0  0  0  0
   -0.6551   -0.1202    1.4632 N   0  0  0  0  0  0  0  0  0  0  0  0
   -0.7763    0.4401    2.8084 C   0  0  0  0  0  0  0  0  0  0  0  0
   -0.5255    1.9589    2.7821 C   0  0  0  0  0  0  0  0  0  0  0  0
    0.8762    2.2493    2.4758 N   0  0  0  0  0  0  0  0  0  0  0  0
    1.1807    3.5461    3.0855 C   0  0  0  0  0  0  0  0  0  0  0  0
   -0.0249    3.9800    3.9106 C   0  0  0  0  0  0  0  0  0  0  0  0
   -0.8625    2.7130    4.0810 C   0  0  0  0  0  0  0  0  0  0  0  0
   -0.6056    1.8627    5.3674 C   0  0  0  0  0  0  0  0  0  0  0  0
   -0.7313    2.6183    6.6849 C   0  0  0  0  0  0  0  0  0  0  0  0
    0.6246    2.0867    6.2402 C   0  0  0  0  0  0  0  0  0  0  0  0
    0.6499   -1.1830   -0.4286 C   0  0  0  0  0  0  0  0  0  0  0  0
   -0.4284   -1.9287   -0.9299 C   0  0  0  0  0  0  0  0  0  0  0  0
   -0.3888   -2.4649   -2.2182 C   0  0  0  0  0  0  0  0  0  0  0  0
    0.7315   -2.2670   -3.0454 C   0  0  0  0  0  0  0  0  0  0  0  0
    1.8119   -1.5187   -2.5429 C   0  0  0  0  0  0  0  0  0  0  0  0
    1.7787   -0.9784   -1.2515 C   0  0  0  0  0  0  0  0  0  0  0  0
    3.1511   -0.0022   -0.7332 Cl  0  0  0  0  0  0  0  0  0  0  0  0
    0.7720   -2.8275   -4.3784 N   0  0  0  0  0  0  0  0  0  0  0  0
   -0.2453   -3.7223   -4.9276 C   0  0  0  0  0  0  0  0  0  0  0  0
    0.2302   -4.2371   -6.3045 C   0  0  0  0  0  0  0  0  0  0  0  0
    1.1865   -3.2247   -6.9421 C   0  0  0  0  0  0  0  0  0  0  0  0
    1.9214   -2.3912   -5.5782 S   0  0  0  0  0  0  0  0  0  0  0  0
    3.2828   -2.9431   -5.2596 O   0  0  0  0  0  0  0  0  0  0  0  0
    1.9615   -0.9045   -5.7945 O   0  0  0  0  0  0  0  0  0  0  0  0
   -1.4686   -0.0079    0.8167 H   0  0  0  0  0  0  0  0  0  0  0  0
   -0.0665   -0.0659    3.4984 H   0  0  0  0  0  0  0  0  0  0  0  0
   -1.8072    0.2472    3.1765 H   0  0  0  0  0  0  0  0  0  0  0  0
   -1.1691    2.3897    1.9771 H   0  0  0  0  0  0  0  0  0  0  0  0
    0.9891    2.3239    1.4370 H   0  0  0  0  0  0  0  0  0  0  0  0
    1.4138    4.3098    2.3097 H   0  0  0  0  0  0  0  0  0  0  0  0
    2.0709    3.4329    3.7391 H   0  0  0  0  0  0  0  0  0  0  0  0
    0.2727    4.4884    4.8478 H   0  0  0  0  0  0  0  0  0  0  0  0
   -0.6131    4.7164    3.3185 H   0  0  0  0  0  0  0  0  0  0  0  0
   -1.9427    2.9811    4.0786 H   0  0  0  0  0  0  0  0  0  0  0  0
   -1.0920    0.8677    5.4497 H   0  0  0  0  0  0  0  0  0  0  0  0
   -1.1883    2.0341    7.5113 H   0  0  0  0  0  0  0  0  0  0  0  0
   -0.8388    3.7206    6.6283 H   0  0  0  0  0  0  0  0  0  0  0  0
    0.9532    1.1871    6.8022 H   0  0  0  0  0  0  0  0  0  0  0  0
    1.3458    2.8742    5.9518 H   0  0  0  0  0  0  0  0  0  0  0  0
   -1.3012   -2.1154   -0.3166 H   0  0  0  0  0  0  0  0  0  0  0  0
   -1.2421   -3.0326   -2.5625 H   0  0  0  0  0  0  0  0  0  0  0  0
    2.6909   -1.3468   -3.1482 H   0  0  0  0  0  0  0  0  0  0  0  0
   -1.1984   -3.1632   -5.0472 H   0  0  0  0  0  0  0  0  0  0  0  0
   -0.4052   -4.5857   -4.2461 H   0  0  0  0  0  0  0  0  0  0  0  0
   -0.6371   -4.4310   -6.9720 H   0  0  0  0  0  0  0  0  0  0  0  0
    0.7756   -5.1956   -6.1575 H   0  0  0  0  0  0  0  0  0  0  0  0
    0.6158   -2.4953   -7.5558 H   0  0  0  0  0  0  0  0  0  0  0  0
    1.9558   -3.7281   -7.5654 H   0  0  0  0  0  0  0  0  0  0  0  0
  1  2  2  0
  2  3  1  0
  3  4  1  0
  4  5  1  0
  5  6  1  0
  6  7  1  0
  7  8  1  0
  8  9  1  0
  9 10  1  0
 10 11  1  0
 11 12  1  0
  2 13  1  0
 13 14  2  0
 14 15  1  0
 15 16  2  0
 16 17  1  0
 17 18  2  0
 18 19  1  0
 16 20  1  0
 20 21  1  0
 21 22  1  0
 22 23  1  0
 23 24  1  0
 24 25  2  0
 24 26  2  0
  9  5  1  0
 12 10  1  0
 13 18  1  0
 24 20  1  0
  3 27  1  0
  4 28  1  0
  4 29  1  0
  5 30  1  0
  6 31  1  0
  7 32  1  0
  7 33  1  0
  8 34  1  0
  8 35  1  0
  9 36  1  0
 10 37  1  0
 11 38  1  0
 11 39  1  0
 12 40  1  0
 12 41  1  0
 14 42  1  0
 15 43  1  0
 17 44  1  0
 21 45  1  0
 21 46  1  0
 22 47  1  0
 22 48  1  0
 23 49  1  0
 23 50  1  0
M  END
$$$$
