
     RDKit          3D

 51 53  0  0  0  0  0  0  0  0999 V2000
   -2.4938   -2.7814   -1.7365 C   0  0  0  0  0  0  0  0  0  0  0  0
   -2.9464   -2.1919   -0.4439 C   0  0  0  0  0  0  0  0  0  0  0  0
   -4.1631   -2.2564   -0.1187 O   0  0  0  0  0  0  0  0  0  0  0  0
   -2.0048   -1.6191    0.4175 O   0  0  0  0  0  0  0  0  0  0  0  0
   -2.3483   -1.0104    1.6602 C   0  0  0  0  0  0  0  0  0  0  0  0
   -3.0837    0.2804    1.4265 C   0  0  0  0  0  0  0  0  0  0  0  0
   -4.2803    0.3661    1.8160 O   0  0  0  0  0  0  0  0  0  0  0  0
   -2.4604    1.3963    0.7508 N   0  0  0  0  0  0  0  0  0  0  0  0
   -3.2851    2.5601    0.3679 C   0  0  0  0  0  0  0  0  0  0  0  0
   -2.8141    3.1503   -0.9658 C   0  0  0  0  0  0  0  0  0  0  0  0
   -1.3695    3.3236   -0.9417 N   0  0  0  0  0  0  0  0  0  0  0  0
   -0.6912    4.1731   -1.6977 N   0  0  0  0  0  0  0  0  0  0  0  0
    0.6210    3.9808   -1.4397 C   0  0  0  0  0  0  0  0  0  0  0  0
    0.7600    2.9682   -0.5070 C   0  0  0  0  0  0  0  0  0  0  0  0
   -0.5282    2.5717   -0.2187 C   0  0  0  0  0  0  0  0  0  0  0  0
   -0.9866    1.4928    0.7150 C   0  0  0  0  0  0  0  0  0  0  0  0
    2.2586    2.3581    0.1745 S   0  0  0  0  0  0  0  0  0  0  0  0
    2.4965    3.0640    1.7888 C   0  0  0  0  0  0  0  0  0  0  0  0
    3.3978    2.7635   -0.7199 O   0  0  0  0  0  0  0  0  0  0  0  0
    2.1746    0.7895    0.2898 N   0  0  0  0  0  0  0  0  0  0  0  0
    3.2265   -0.1142   -0.0665 C   0  0  0  0  0  0  0  0  0  0  0  0
    4.3946    0.3039   -0.2904 O   0  0  0  0  0  0  0  0  0  0  0  0
    2.9501   -1.5875   -0.0804 C   0  0  0  0  0  0  0  0  0  0  0  0
    3.4289   -2.3157   -1.3398 C   0  0  0  0  0  0  0  0  0  0  0  0
    1.9362   -2.1024   -1.1076 C   0  0  0  0  0  0  0  0  0  0  0  0
    1.1522   -3.3550   -0.7073 C   0  0  0  0  0  0  0  0  0  0  0  0
    1.2592   -1.1231   -2.0791 C   0  0  0  0  0  0  0  0  0  0  0  0
   -1.6554   -2.1829   -2.1499 H   0  0  0  0  0  0  0  0  0  0  0  0
   -2.1492   -3.8227   -1.5677 H   0  0  0  0  0  0  0  0  0  0  0  0
   -3.3266   -2.7842   -2.4713 H   0  0  0  0  0  0  0  0  0  0  0  0
   -2.9651   -1.7111    2.2648 H   0  0  0  0  0  0  0  0  0  0  0  0
   -1.4207   -0.8086    2.2347 H   0  0  0  0  0  0  0  0  0  0  0  0
   -4.3541    2.2768    0.2575 H   0  0  0  0  0  0  0  0  0  0  0  0
   -3.2107    3.3333    1.1627 H   0  0  0  0  0  0  0  0  0  0  0  0
   -3.3105    4.1294   -1.1381 H   0  0  0  0  0  0  0  0  0  0  0  0
   -3.0829    2.4604   -1.7943 H   0  0  0  0  0  0  0  0  0  0  0  0
    1.4223    4.5400   -1.9039 H   0  0  0  0  0  0  0  0  0  0  0  0
   -0.5547    0.5390    0.3526 H   0  0  0  0  0  0  0  0  0  0  0  0
   -0.6047    1.6991    1.7369 H   0  0  0  0  0  0  0  0  0  0  0  0
    1.6359    2.8074    2.4390 H   0  0  0  0  0  0  0  0  0  0  0  0
    2.5756    4.1670    1.7018 H   0  0  0  0  0  0  0  0  0  0  0  0
    3.4284    2.6617    2.2357 H   0  0  0  0  0  0  0  0  0  0  0  0
    3.0652   -2.1656    0.8610 H   0  0  0  0  0  0  0  0  0  0  0  0
    3.8965   -1.6697   -2.1151 H   0  0  0  0  0  0  0  0  0  0  0  0
    3.8063   -3.3422   -1.1441 H   0  0  0  0  0  0  0  0  0  0  0  0
    0.2185   -3.0552   -0.1902 H   0  0  0  0  0  0  0  0  0  0  0  0
    1.7343   -4.0105   -0.0241 H   0  0  0  0  0  0  0  0  0  0  0  0
    0.8905   -3.9368   -1.6157 H   0  0  0  0  0  0  0  0  0  0  0  0
    0.9125   -1.6756   -2.9777 H   0  0  0  0  0  0  0  0  0  0  0  0
    1.9423   -0.3148   -2.4165 H   0  0  0  0  0  0  0  0  0  0  0  0
    0.3791   -0.6607   -1.5862 H   0  0  0  0  0  0  0  0  0  0  0  0
  1  2  1  0
  2  3  2  0
  2  4  1  0
  4  5  1  0
  5  6  1  0
  6  7  2  0
  6  8  1  0
  8  9  1  0
  9 10  1  0
 10 11  1  0
 11 12  1  0
 12 13  2  0
 13 14  1  0
 14 15  2  0
 15 16  1  0
 14 17  1  0
 17 18  1  0
 17 19  2  0
 17 20  2  0
 20 21  1  0
 21 22  2  0
 21 23  1  0
 23 24  1  0
 24 25  1  0
 25 26  1  0
 25 27  1  0
 16  8  1  0
 15 11  1  0
 25 23  1  0
  1 28  1  0
  1 29  1  0
  1 30  1  0
  5 31  1  0
  5 32  1  0
  9 33  1  0
  9 34  1  0
 10 35  1  0
 10 36  1  0
 13 37  1  0
 16 38  1  0
 16 39  1  0
 18 40  1  0
 18 41  1  0
 18 42  1  0
 23 43  1  0
 24 44  1  0
 24 45  1  0
 26 46  1  0
 26 47  1  0
 26 48  1  0
 27 49  1  0
 27 50  1  0
 27 51  1  0
M  END
$$$$
