
     RDKit          3D

 45 48  0  0  0  0  0  0  0  0999 V2000
   -3.4586    2.1668   -0.4509 C   0  0  0  0  0  0  0  0  0  0  0  0
   -2.1371    1.3848   -0.3952 C   0  0  0  0  0  0  0  0  0  0  0  0
   -1.9455    0.8078    1.0216 C   0  0  0  0  0  0  0  0  0  0  0  0
   -0.8511   -0.1636    1.0512 N   0  0  0  0  0  0  0  0  0  0  0  0
    0.5022    0.2795    0.7045 C   0  0  0  0  0  0  0  0  0  0  0  0
    0.6660    0.3370   -0.8254 C   0  0  0  0  0  0  0  0  0  0  0  0
    0.1442    1.5720   -1.4811 N   0  0  0  0  0  0  0  0  0  0  0  0
   -0.9479    2.2991   -0.7920 C   0  0  0  0  0  0  0  0  0  0  0  0
    1.1557    2.5247   -2.0201 C   0  0  0  0  0  0  0  0  0  0  0  0
    2.1061    1.9173   -3.0512 C   0  0  0  0  0  0  0  0  0  0  0  0
    3.2872    2.2409   -2.1403 C   0  0  0  0  0  0  0  0  0  0  0  0
    2.3408    2.8437   -1.1058 C   0  0  0  0  0  0  0  0  0  0  0  0
   -1.1573   -1.5692    1.0701 C   0  0  0  0  0  0  0  0  0  0  0  0
   -2.0636   -2.0191    0.3182 O   0  0  0  0  0  0  0  0  0  0  0  0
   -0.4453   -2.4926    1.9712 C   0  0  0  0  0  0  0  0  0  0  0  0
    0.3473   -2.1020    3.0724 C   0  0  0  0  0  0  0  0  0  0  0  0
    0.7393   -3.3071    3.5921 C   0  0  0  0  0  0  0  0  0  0  0  0
    1.4556   -3.7464    4.5903 O   0  0  0  0  0  0  0  0  0  0  0  0
    1.3954   -5.0745    4.5004 C   0  0  0  0  0  0  0  0  0  0  0  0
    2.2688   -6.2549    5.7157 Br  0  0  0  0  0  0  0  0  0  0  0  0
    0.6109   -5.4868    3.4069 C   0  0  0  0  0  0  0  0  0  0  0  0
    0.2312   -4.2842    2.8780 C   0  0  0  0  0  0  0  0  0  0  0  0
   -0.5203   -3.8524    1.8605 N   0  0  0  0  0  0  0  0  0  0  0  0
   -3.4308    3.0310    0.2475 H   0  0  0  0  0  0  0  0  0  0  0  0
   -3.6419    2.5410   -1.4808 H   0  0  0  0  0  0  0  0  0  0  0  0
   -4.3101    1.5083   -0.1757 H   0  0  0  0  0  0  0  0  0  0  0  0
   -2.2212    0.5480   -1.1239 H   0  0  0  0  0  0  0  0  0  0  0  0
   -2.8859    0.3215    1.3657 H   0  0  0  0  0  0  0  0  0  0  0  0
   -1.7321    1.6246    1.7455 H   0  0  0  0  0  0  0  0  0  0  0  0
    1.2494   -0.4359    1.1078 H   0  0  0  0  0  0  0  0  0  0  0  0
    0.7245    1.2577    1.1789 H   0  0  0  0  0  0  0  0  0  0  0  0
    0.1506   -0.5370   -1.2777 H   0  0  0  0  0  0  0  0  0  0  0  0
    1.7385    0.1742   -1.0510 H   0  0  0  0  0  0  0  0  0  0  0  0
   -0.5544    2.8561    0.0869 H   0  0  0  0  0  0  0  0  0  0  0  0
   -1.3331    3.0763   -1.4896 H   0  0  0  0  0  0  0  0  0  0  0  0
    0.6940    3.4516   -2.4322 H   0  0  0  0  0  0  0  0  0  0  0  0
    1.9716    0.8283   -3.2250 H   0  0  0  0  0  0  0  0  0  0  0  0
    2.1346    2.5046   -3.9952 H   0  0  0  0  0  0  0  0  0  0  0  0
    3.9722    2.9970   -2.5827 H   0  0  0  0  0  0  0  0  0  0  0  0
    3.8037    1.3292   -1.7689 H   0  0  0  0  0  0  0  0  0  0  0  0
    2.4939    3.9386   -0.9877 H   0  0  0  0  0  0  0  0  0  0  0  0
    2.3619    2.3000   -0.1404 H   0  0  0  0  0  0  0  0  0  0  0  0
    0.5729   -1.1077    3.4343 H   0  0  0  0  0  0  0  0  0  0  0  0
    0.3686   -6.4873    3.0751 H   0  0  0  0  0  0  0  0  0  0  0  0
   -1.0406   -4.4229    1.1575 H   0  0  0  0  0  0  0  0  0  0  0  0
  1  2  1  0
  2  3  1  0
  3  4  1  0
  4  5  1  0
  5  6  1  0
  6  7  1  0
  7  8  1  0
  7  9  1  0
  9 10  1  0
 10 11  1  0
 11 12  1  0
  4 13  1  0
 13 14  2  0
 13 15  1  0
 15 16  2  0
 16 17  1  0
 17 18  1  0
 18 19  1  0
 19 20  1  0
 19 21  2  0
 21 22  1  0
 22 23  1  0
  8  2  1  0
 12  9  1  0
 23 15  1  0
 17 22  2  0
  1 24  1  0
  1 25  1  0
  1 26  1  0
  2 27  1  0
  3 28  1  0
  3 29  1  0
  5 30  1  0
  5 31  1  0
  6 32  1  0
  6 33  1  0
  8 34  1  0
  8 35  1  0
  9 36  1  0
 10 37  1  0
 10 38  1  0
 11 39  1  0
 11 40  1  0
 12 41  1  0
 12 42  1  0
 16 43  1  0
 21 44  1  0
 23 45  1  0
M  END
$$$$
