
     RDKit          3D

 52 55  0  0  0  0  0  0  0  0999 V2000
   -1.2068   -1.4647   -5.3782 C   0  0  0  0  0  0  0  0  0  0  0  0
   -1.9210   -0.4312   -4.6115 N   0  0  0  0  0  0  0  0  0  0  0  0
   -3.2526   -0.8775   -4.1514 C   0  0  0  0  0  0  0  0  0  0  0  0
   -3.1844   -1.7635   -2.8985 C   0  0  0  0  0  0  0  0  0  0  0  0
   -2.3862   -1.0657   -1.7970 C   0  0  0  0  0  0  0  0  0  0  0  0
   -0.9556   -0.7257   -2.2783 C   0  0  0  0  0  0  0  0  0  0  0  0
   -1.1104    0.1800   -3.5338 C   0  0  0  0  0  0  0  0  0  0  0  0
   -0.1068   -1.9321   -2.5530 N   0  0  0  0  0  0  0  0  0  0  0  0
   -0.1427   -2.9846   -1.5127 C   0  0  0  0  0  0  0  0  0  0  0  0
    0.4716   -2.5064   -0.1938 C   0  0  0  0  0  0  0  0  0  0  0  0
    1.8191   -1.9588   -0.4125 N   0  0  0  0  0  0  0  0  0  0  0  0
    2.0634   -1.1037   -1.5849 C   0  0  0  0  0  0  0  0  0  0  0  0
    1.3146   -1.6129   -2.8277 C   0  0  0  0  0  0  0  0  0  0  0  0
    2.7843   -1.9349    0.6640 C   0  0  0  0  0  0  0  0  0  0  0  0
    4.0033   -1.7437    0.4041 O   0  0  0  0  0  0  0  0  0  0  0  0
    2.3809   -2.1034    2.1061 C   0  0  0  0  0  0  0  0  0  0  0  0
    1.3892   -1.0532    2.5101 C   0  0  0  0  0  0  0  0  0  0  0  0
    0.2082   -1.3444    3.1890 C   0  0  0  0  0  0  0  0  0  0  0  0
   -0.6170    0.1008    3.4244 S   0  0  0  0  0  0  0  0  0  0  0  0
    0.5635    1.0316    2.6695 C   0  0  0  0  0  0  0  0  0  0  0  0
    1.5859    0.2651    2.2329 N   0  0  0  0  0  0  0  0  0  0  0  0
    0.5063    2.4865    2.4836 C   0  0  0  0  0  0  0  0  0  0  0  0
    1.4717    3.2627    1.8545 C   0  0  0  0  0  0  0  0  0  0  0  0
    1.1472    4.6242    1.8182 C   0  0  0  0  0  0  0  0  0  0  0  0
   -0.0707    4.9237    2.4147 C   0  0  0  0  0  0  0  0  0  0  0  0
   -0.7436    3.4932    2.9882 S   0  0  0  0  0  0  0  0  0  0  0  0
   -0.1893   -1.1147   -5.6536 H   0  0  0  0  0  0  0  0  0  0  0  0
   -1.7513   -1.6648   -6.3254 H   0  0  0  0  0  0  0  0  0  0  0  0
   -1.1275   -2.4178   -4.8176 H   0  0  0  0  0  0  0  0  0  0  0  0
   -3.8703    0.0192   -3.9256 H   0  0  0  0  0  0  0  0  0  0  0  0
   -3.7803   -1.4263   -4.9625 H   0  0  0  0  0  0  0  0  0  0  0  0
   -4.2163   -1.9566   -2.5338 H   0  0  0  0  0  0  0  0  0  0  0  0
   -2.7288   -2.7454   -3.1447 H   0  0  0  0  0  0  0  0  0  0  0  0
   -2.3910   -1.6648   -0.8652 H   0  0  0  0  0  0  0  0  0  0  0  0
   -2.9088   -0.1208   -1.5262 H   0  0  0  0  0  0  0  0  0  0  0  0
   -0.4919   -0.1112   -1.4780 H   0  0  0  0  0  0  0  0  0  0  0  0
   -1.6142    1.1207   -3.2187 H   0  0  0  0  0  0  0  0  0  0  0  0
   -0.1383    0.5292   -3.9309 H   0  0  0  0  0  0  0  0  0  0  0  0
   -1.1663   -3.3753   -1.3551 H   0  0  0  0  0  0  0  0  0  0  0  0
    0.4311   -3.8705   -1.8662 H   0  0  0  0  0  0  0  0  0  0  0  0
    0.5145   -3.3786    0.4916 H   0  0  0  0  0  0  0  0  0  0  0  0
   -0.1754   -1.7325    0.2683 H   0  0  0  0  0  0  0  0  0  0  0  0
    3.1467   -1.0831   -1.8319 H   0  0  0  0  0  0  0  0  0  0  0  0
    1.7629   -0.0612   -1.3500 H   0  0  0  0  0  0  0  0  0  0  0  0
    1.8275   -2.5295   -3.1953 H   0  0  0  0  0  0  0  0  0  0  0  0
    1.4248   -0.8871   -3.6535 H   0  0  0  0  0  0  0  0  0  0  0  0
    1.9682   -3.1223    2.2622 H   0  0  0  0  0  0  0  0  0  0  0  0
    3.2733   -2.0084    2.7616 H   0  0  0  0  0  0  0  0  0  0  0  0
   -0.1280   -2.3258    3.4956 H   0  0  0  0  0  0  0  0  0  0  0  0
    2.3837    2.8614    1.4321 H   0  0  0  0  0  0  0  0  0  0  0  0
    1.7845    5.3728    1.3673 H   0  0  0  0  0  0  0  0  0  0  0  0
   -0.5088    5.9092    2.4957 H   0  0  0  0  0  0  0  0  0  0  0  0
  1  2  1  0
  2  3  1  0
  3  4  1  0
  4  5  1  0
  5  6  1  0
  6  7  1  0
  6  8  1  0
  8  9  1  0
  9 10  1  0
 10 11  1  0
 11 12  1  0
 12 13  1  0
 11 14  1  0
 14 15  2  0
 14 16  1  0
 16 17  1  0
 17 18  2  0
 18 19  1  0
 19 20  1  0
 20 21  2  0
 20 22  1  0
 22 23  2  0
 23 24  1  0
 24 25  2  0
 25 26  1  0
  7  2  1  0
 13  8  1  0
 21 17  1  0
 26 22  1  0
  1 27  1  0
  1 28  1  0
  1 29  1  0
  3 30  1  0
  3 31  1  0
  4 32  1  0
  4 33  1  0
  5 34  1  0
  5 35  1  0
  6 36  1  0
  7 37  1  0
  7 38  1  0
  9 39  1  0
  9 40  1  0
 10 41  1  0
 10 42  1  0
 12 43  1  0
 12 44  1  0
 13 45  1  0
 13 46  1  0
 16 47  1  0
 16 48  1  0
 18 49  1  0
 23 50  1  0
 24 51  1  0
 25 52  1  0
M  END
$$$$
