
     RDKit          3D

  0  0  0  0  0  0  0  0  0  0999 V3000
M  V30 BEGIN CTAB
M  V30 COUNTS 39 41 0 0 0
M  V30 BEGIN ATOM
M  V30 1 O -0.136846 0.541625 -2.768776 0
M  V30 2 C 0.133596 -0.683994 -2.642137 0
M  V30 3 N 1.055911 -1.110353 -1.626307 0
M  V30 4 C 1.354435 -0.294853 -0.443996 0 CFG=2
M  V30 5 C 2.844605 -0.485667 -0.029590 0
M  V30 6 C 3.038849 -1.387043 1.194711 0
M  V30 7 C 2.195266 -0.865489 2.312197 0
M  V30 8 O 2.619147 -0.869476 3.498293 0
M  V30 9 N 0.890192 -0.373046 2.010624 0
M  V30 10 C 0.329620 -0.633811 0.682441 0 CFG=1
M  V30 11 C -0.967338 0.124760 0.483799 0
M  V30 12 C -1.030872 1.510991 0.718051 0
M  V30 13 C -2.219451 2.211791 0.493259 0
M  V30 14 C -3.351492 1.539412 0.026278 0
M  V30 15 C -3.296632 0.165036 -0.218165 0
M  V30 16 C -2.110942 -0.540604 0.006818 0
M  V30 17 C -0.487107 -1.659860 -3.565590 0
M  V30 18 C -0.779871 -1.283456 -4.886481 0
M  V30 19 C -1.367750 -2.195571 -5.763678 0
M  V30 20 C -1.672264 -3.478999 -5.311690 0
M  V30 21 N -1.405555 -3.828002 -4.026084 0
M  V30 22 C -0.828781 -2.962119 -3.149829 0
M  V30 23 F -0.639634 -3.360698 -1.867474 0
M  V30 24 H 1.429399 -2.085777 -1.659057 0
M  V30 25 H 1.255003 0.780751 -0.712826 0
M  V30 26 H 3.280183 0.510830 0.208968 0
M  V30 27 H 3.440143 -0.889023 -0.877634 0
M  V30 28 H 4.110704 -1.391097 1.489257 0
M  V30 29 H 2.729580 -2.426329 0.952531 0
M  V30 30 H 0.301827 0.028185 2.776175 0
M  V30 31 H 0.121145 -1.727188 0.636339 0
M  V30 32 H -0.158435 2.047973 1.069227 0
M  V30 33 H -2.261469 3.277578 0.676981 0
M  V30 34 H -4.270116 2.084005 -0.149673 0
M  V30 35 H -4.172539 -0.353690 -0.585798 0
M  V30 36 H -2.084358 -1.603327 -0.198166 0
M  V30 37 H -0.541088 -0.288909 -5.242975 0
M  V30 38 H -1.585086 -1.910018 -6.784807 0
M  V30 39 H -2.129320 -4.196092 -5.980380 0
M  V30 END ATOM
M  V30 BEGIN BOND
M  V30 1 2 1 2
M  V30 2 1 2 3
M  V30 3 1 3 4
M  V30 4 1 4 5
M  V30 5 1 5 6
M  V30 6 1 6 7
M  V30 7 2 7 8
M  V30 8 1 7 9
M  V30 9 1 9 10
M  V30 10 1 10 11
M  V30 11 2 11 12
M  V30 12 1 12 13
M  V30 13 2 13 14
M  V30 14 1 14 15
M  V30 15 2 15 16
M  V30 16 1 2 17
M  V30 17 2 17 18
M  V30 18 1 18 19
M  V30 19 2 19 20
M  V30 20 1 20 21
M  V30 21 2 21 22
M  V30 22 1 22 23
M  V30 23 1 10 4
M  V30 24 1 11 16
M  V30 25 1 17 22
M  V30 26 1 3 24
M  V30 27 1 4 25 CFG=3
M  V30 28 1 5 26
M  V30 29 1 5 27
M  V30 30 1 6 28
M  V30 31 1 6 29
M  V30 32 1 9 30
M  V30 33 1 10 31 CFG=1
M  V30 34 1 12 32
M  V30 35 1 13 33
M  V30 36 1 14 34
M  V30 37 1 15 35
M  V30 38 1 16 36
M  V30 39 1 18 37
M  V30 40 1 19 38
M  V30 41 1 20 39
M  V30 END BOND
M  V30 BEGIN COLLECTION
M  V30 MDLV30/STERAC1 ATOMS=(2 4 10)
M  V30 END COLLECTION
M  V30 END CTAB
M  END
>  <_CXSMILES_Data>  (1) 
|&1:3,9,r|

$$$$
