
     RDKit          3D

 44 47  0  0  0  0  0  0  0  0999 V2000
    0.1558   -3.2338    4.4197 C   0  0  0  0  0  0  0  0  0  0  0  0
    0.3867   -4.4341    3.5036 C   0  0  0  0  0  0  0  0  0  0  0  0
   -0.3339   -4.2832    2.1586 C   0  0  0  0  0  0  0  0  0  0  0  0
    0.2089   -3.1618    1.3925 N   0  0  0  0  0  0  0  0  0  0  0  0
   -0.3569   -1.9595    1.3460 N   0  0  0  0  0  0  0  0  0  0  0  0
    0.4337   -1.1628    0.5879 C   0  0  0  0  0  0  0  0  0  0  0  0
    0.1613    0.2144    0.3082 N   0  0  0  0  0  0  0  0  0  0  0  0
   -1.0309    0.8687    0.8416 C   0  0  0  0  0  0  0  0  0  0  0  0
   -1.0824    2.2986    0.4100 C   0  0  0  0  0  0  0  0  0  0  0  0
   -1.6139    2.7146   -0.7555 N   0  0  0  0  0  0  0  0  0  0  0  0
   -1.3945    4.0440   -0.6811 C   0  0  0  0  0  0  0  0  0  0  0  0
   -1.7469    5.0017   -1.7718 C   0  0  0  0  0  0  0  0  0  0  0  0
   -0.6084    5.0618   -2.7953 C   0  0  0  0  0  0  0  0  0  0  0  0
    0.4689    6.1004   -2.5212 C   0  0  0  0  0  0  0  0  0  0  0  0
   -0.5543    6.3373   -3.6218 C   0  0  0  0  0  0  0  0  0  0  0  0
   -0.7507    4.4034    0.4466 N   0  0  0  0  0  0  0  0  0  0  0  0
   -0.5785    3.2937    1.0970 O   0  0  0  0  0  0  0  0  0  0  0  0
    1.5272   -1.8823    0.1531 C   0  0  0  0  0  0  0  0  0  0  0  0
    2.6314   -1.5511   -0.6296 C   0  0  0  0  0  0  0  0  0  0  0  0
    3.5833   -2.5598   -0.8696 C   0  0  0  0  0  0  0  0  0  0  0  0
    3.4098   -3.8541   -0.3273 C   0  0  0  0  0  0  0  0  0  0  0  0
    2.2821   -4.1541    0.4605 C   0  0  0  0  0  0  0  0  0  0  0  0
    1.3545   -3.1332    0.6795 C   0  0  0  0  0  0  0  0  0  0  0  0
    0.6374   -3.4204    5.4026 H   0  0  0  0  0  0  0  0  0  0  0  0
   -0.9313   -3.0737    4.5819 H   0  0  0  0  0  0  0  0  0  0  0  0
    0.6021   -2.3170    3.9801 H   0  0  0  0  0  0  0  0  0  0  0  0
    1.4774   -4.5652    3.3364 H   0  0  0  0  0  0  0  0  0  0  0  0
    0.0074   -5.3474    4.0106 H   0  0  0  0  0  0  0  0  0  0  0  0
   -1.4221   -4.1303    2.3290 H   0  0  0  0  0  0  0  0  0  0  0  0
   -0.2217   -5.2214    1.5739 H   0  0  0  0  0  0  0  0  0  0  0  0
    0.8332    0.7509   -0.2866 H   0  0  0  0  0  0  0  0  0  0  0  0
   -1.9390    0.3423    0.4770 H   0  0  0  0  0  0  0  0  0  0  0  0
   -1.0148    0.8228    1.9516 H   0  0  0  0  0  0  0  0  0  0  0  0
   -2.6681    4.6503   -2.2830 H   0  0  0  0  0  0  0  0  0  0  0  0
   -1.9649    5.9983   -1.3280 H   0  0  0  0  0  0  0  0  0  0  0  0
   -0.2764    4.1421   -3.3237 H   0  0  0  0  0  0  0  0  0  0  0  0
    1.4774    5.8240   -2.8946 H   0  0  0  0  0  0  0  0  0  0  0  0
    0.3208    6.7337   -1.6202 H   0  0  0  0  0  0  0  0  0  0  0  0
   -1.3075    7.1165   -3.3761 H   0  0  0  0  0  0  0  0  0  0  0  0
   -0.1482    6.2059   -4.6470 H   0  0  0  0  0  0  0  0  0  0  0  0
    2.7584   -0.5577   -1.0388 H   0  0  0  0  0  0  0  0  0  0  0  0
    4.4552   -2.3424   -1.4728 H   0  0  0  0  0  0  0  0  0  0  0  0
    4.1498   -4.6202   -0.5186 H   0  0  0  0  0  0  0  0  0  0  0  0
    2.1470   -5.1429    0.8779 H   0  0  0  0  0  0  0  0  0  0  0  0
  1  2  1  0
  2  3  1  0
  3  4  1  0
  4  5  1  0
  5  6  2  0
  6  7  1  0
  7  8  1  0
  8  9  1  0
  9 10  2  0
 10 11  1  0
 11 12  1  0
 12 13  1  0
 13 14  1  0
 14 15  1  0
 11 16  2  0
 16 17  1  0
  6 18  1  0
 18 19  2  0
 19 20  1  0
 20 21  2  0
 21 22  1  0
 22 23  2  0
 23  4  1  0
 17  9  1  0
 15 13  1  0
 18 23  1  0
  1 24  1  0
  1 25  1  0
  1 26  1  0
  2 27  1  0
  2 28  1  0
  3 29  1  0
  3 30  1  0
  7 31  1  0
  8 32  1  0
  8 33  1  0
 12 34  1  0
 12 35  1  0
 13 36  1  0
 14 37  1  0
 14 38  1  0
 15 39  1  0
 15 40  1  0
 19 41  1  0
 20 42  1  0
 21 43  1  0
 22 44  1  0
M  END
$$$$
