
     RDKit          3D

 47 49  0  0  0  0  0  0  0  0999 V2000
    0.8280   -0.1102    4.7082 C   0  0  0  0  0  0  0  0  0  0  0  0
   -0.5360   -0.3541    4.9912 O   0  0  0  0  0  0  0  0  0  0  0  0
   -1.4124   -0.0597    3.9030 C   0  0  0  0  0  0  0  0  0  0  0  0
   -2.7929   -0.5291    4.3153 C   0  0  0  0  0  0  0  0  0  0  0  0
   -3.3405    0.6367    5.1117 C   0  0  0  0  0  0  0  0  0  0  0  0
   -2.6745    1.8126    4.7202 O   0  0  0  0  0  0  0  0  0  0  0  0
   -1.6927    1.4455    3.7791 C   0  0  0  0  0  0  0  0  0  0  0  0
   -1.0126   -0.7699    2.6053 C   0  0  0  0  0  0  0  0  0  0  0  0
   -1.2992   -2.0718    2.3807 N   0  0  0  0  0  0  0  0  0  0  0  0
   -0.7845   -2.4000    1.2047 N   0  0  0  0  0  0  0  0  0  0  0  0
   -0.1763   -1.2985    0.7329 C   0  0  0  0  0  0  0  0  0  0  0  0
    0.5296   -1.2152   -0.5842 C   0  0  0  0  0  0  0  0  0  0  0  0
    1.0558    0.1399   -0.8215 N   0  0  0  0  0  0  0  0  0  0  0  0
    1.4119    0.9966    0.3246 C   0  0  0  0  0  0  0  0  0  0  0  0
    0.2551    1.0709    1.3278 C   0  0  0  0  0  0  0  0  0  0  0  0
   -0.2695   -0.2685    1.5885 N   0  0  0  0  0  0  0  0  0  0  0  0
    1.4840    0.4878   -2.1527 C   0  0  0  0  0  0  0  0  0  0  0  0
    2.0340    1.6017   -2.3690 O   0  0  0  0  0  0  0  0  0  0  0  0
    1.2825   -0.4233   -3.2031 O   0  0  0  0  0  0  0  0  0  0  0  0
    1.6486   -0.2347   -4.5780 C   0  0  0  0  0  0  0  0  0  0  0  0
    3.1730   -0.0586   -4.7147 C   0  0  0  0  0  0  0  0  0  0  0  0
    0.9054    0.9748   -5.1768 C   0  0  0  0  0  0  0  0  0  0  0  0
    1.2258   -1.5017   -5.3370 C   0  0  0  0  0  0  0  0  0  0  0  0
    1.4164   -0.3537    5.6162 H   0  0  0  0  0  0  0  0  0  0  0  0
    1.2085   -0.7692    3.8997 H   0  0  0  0  0  0  0  0  0  0  0  0
    1.0255    0.9552    4.4821 H   0  0  0  0  0  0  0  0  0  0  0  0
   -3.4483   -0.6934    3.4286 H   0  0  0  0  0  0  0  0  0  0  0  0
   -2.7618   -1.4616    4.9218 H   0  0  0  0  0  0  0  0  0  0  0  0
   -3.1645    0.4697    6.1965 H   0  0  0  0  0  0  0  0  0  0  0  0
   -4.4329    0.7486    4.9421 H   0  0  0  0  0  0  0  0  0  0  0  0
   -2.0877    1.6835    2.7673 H   0  0  0  0  0  0  0  0  0  0  0  0
   -0.7945    2.0669    3.9518 H   0  0  0  0  0  0  0  0  0  0  0  0
    1.3662   -1.9456   -0.6016 H   0  0  0  0  0  0  0  0  0  0  0  0
   -0.2003   -1.4821   -1.3784 H   0  0  0  0  0  0  0  0  0  0  0  0
    2.3088    0.5724    0.8262 H   0  0  0  0  0  0  0  0  0  0  0  0
    1.6563    2.0308    0.0007 H   0  0  0  0  0  0  0  0  0  0  0  0
    0.6365    1.5306    2.2583 H   0  0  0  0  0  0  0  0  0  0  0  0
   -0.5538    1.7053    0.9069 H   0  0  0  0  0  0  0  0  0  0  0  0
    3.5138    0.8929   -4.2583 H   0  0  0  0  0  0  0  0  0  0  0  0
    3.4700   -0.0435   -5.7857 H   0  0  0  0  0  0  0  0  0  0  0  0
    3.7019   -0.8965   -4.2120 H   0  0  0  0  0  0  0  0  0  0  0  0
    1.2463    1.9265   -4.7209 H   0  0  0  0  0  0  0  0  0  0  0  0
   -0.1878    0.8765   -5.0042 H   0  0  0  0  0  0  0  0  0  0  0  0
    1.0870    1.0421   -6.2713 H   0  0  0  0  0  0  0  0  0  0  0  0
    1.7389   -2.3927   -4.9150 H   0  0  0  0  0  0  0  0  0  0  0  0
    0.1297   -1.6594   -5.2428 H   0  0  0  0  0  0  0  0  0  0  0  0
    1.4807   -1.4246   -6.4163 H   0  0  0  0  0  0  0  0  0  0  0  0
  1  2  1  0
  2  3  1  0
  3  4  1  0
  4  5  1  0
  5  6  1  0
  6  7  1  0
  3  8  1  0
  8  9  2  0
  9 10  1  0
 10 11  2  0
 11 12  1  0
 12 13  1  0
 13 14  1  0
 14 15  1  0
 15 16  1  0
 13 17  1  0
 17 18  2  0
 17 19  1  0
 19 20  1  0
 20 21  1  0
 20 22  1  0
 20 23  1  0
  7  3  1  0
 16  8  1  0
 16 11  1  0
  1 24  1  0
  1 25  1  0
  1 26  1  0
  4 27  1  0
  4 28  1  0
  5 29  1  0
  5 30  1  0
  7 31  1  0
  7 32  1  0
 12 33  1  0
 12 34  1  0
 14 35  1  0
 14 36  1  0
 15 37  1  0
 15 38  1  0
 21 39  1  0
 21 40  1  0
 21 41  1  0
 22 42  1  0
 22 43  1  0
 22 44  1  0
 23 45  1  0
 23 46  1  0
 23 47  1  0
M  END
$$$$
