
     RDKit          3D

 46 48  0  0  0  0  0  0  0  0999 V2000
   -2.1192   -1.7314    1.7258 C   0  0  0  0  0  0  0  0  0  0  0  0
   -2.3020   -0.5841    0.7776 C   0  0  0  0  0  0  0  0  0  0  0  0
   -2.8147   -0.7997   -0.5105 C   0  0  0  0  0  0  0  0  0  0  0  0
   -2.9319    0.2651   -1.4070 C   0  0  0  0  0  0  0  0  0  0  0  0
   -2.5292    1.5493   -1.0301 C   0  0  0  0  0  0  0  0  0  0  0  0
   -2.0046    1.7784    0.2512 C   0  0  0  0  0  0  0  0  0  0  0  0
   -1.8873    0.7038    1.1492 C   0  0  0  0  0  0  0  0  0  0  0  0
   -1.4745    3.1412    0.6231 C   0  0  0  0  0  0  0  0  0  0  0  0
   -0.0685    3.3819    0.0364 C   0  0  0  0  0  0  0  0  0  0  0  0
    0.4569    4.7626    0.4477 C   0  0  0  0  0  0  0  0  0  0  0  0
    1.7108    4.9851   -0.1364 O   0  0  0  0  0  0  0  0  0  0  0  0
    0.8578    2.3384    0.4939 N   0  0  0  0  0  0  0  0  0  0  0  0
    1.0708    1.1339   -0.2618 C   0  0  0  0  0  0  0  0  0  0  0  0
    0.8043    1.1195   -1.4937 O   0  0  0  0  0  0  0  0  0  0  0  0
    1.5321   -0.1072    0.4008 C   0  0  0  0  0  0  0  0  0  0  0  0
    1.9606   -0.2434    1.7089 C   0  0  0  0  0  0  0  0  0  0  0  0
    2.1433   -1.5499    1.9672 N   0  0  0  0  0  0  0  0  0  0  0  0
    1.8445   -2.2667    0.8968 N   0  0  0  0  0  0  0  0  0  0  0  0
    1.4797   -1.4132   -0.0794 C   0  0  0  0  0  0  0  0  0  0  0  0
    1.0087   -1.8650   -1.3990 C   0  0  0  0  0  0  0  0  0  0  0  0
    1.6453   -1.4333   -2.5731 C   0  0  0  0  0  0  0  0  0  0  0  0
    1.1829   -1.8619   -3.8212 C   0  0  0  0  0  0  0  0  0  0  0  0
    0.0888   -2.7282   -3.9038 C   0  0  0  0  0  0  0  0  0  0  0  0
   -0.5362   -3.1787   -2.7364 C   0  0  0  0  0  0  0  0  0  0  0  0
   -1.9102   -4.2625   -2.8382 Cl  0  0  0  0  0  0  0  0  0  0  0  0
   -0.0690   -2.7586   -1.4861 C   0  0  0  0  0  0  0  0  0  0  0  0
   -2.7930   -2.5767    1.4640 H   0  0  0  0  0  0  0  0  0  0  0  0
   -1.0658   -2.0812    1.6834 H   0  0  0  0  0  0  0  0  0  0  0  0
   -2.3517   -1.4123    2.7652 H   0  0  0  0  0  0  0  0  0  0  0  0
   -3.1162   -1.7921   -0.8239 H   0  0  0  0  0  0  0  0  0  0  0  0
   -3.3246    0.0920   -2.4007 H   0  0  0  0  0  0  0  0  0  0  0  0
   -2.6062    2.3611   -1.7424 H   0  0  0  0  0  0  0  0  0  0  0  0
   -1.4496    0.8644    2.1275 H   0  0  0  0  0  0  0  0  0  0  0  0
   -2.1732    3.9179    0.2418 H   0  0  0  0  0  0  0  0  0  0  0  0
   -1.4433    3.2477    1.7300 H   0  0  0  0  0  0  0  0  0  0  0  0
   -0.1411    3.3735   -1.0741 H   0  0  0  0  0  0  0  0  0  0  0  0
    0.5435    4.8209    1.5570 H   0  0  0  0  0  0  0  0  0  0  0  0
   -0.2548    5.5469    0.1038 H   0  0  0  0  0  0  0  0  0  0  0  0
    2.0014    5.8835    0.1695 H   0  0  0  0  0  0  0  0  0  0  0  0
    1.1653    2.3738    1.4899 H   0  0  0  0  0  0  0  0  0  0  0  0
    2.1089    0.5421    2.4373 H   0  0  0  0  0  0  0  0  0  0  0  0
    2.4540   -1.9566    2.8767 H   0  0  0  0  0  0  0  0  0  0  0  0
    2.4985   -0.7675   -2.5213 H   0  0  0  0  0  0  0  0  0  0  0  0
    1.6720   -1.5213   -4.7247 H   0  0  0  0  0  0  0  0  0  0  0  0
   -0.2686   -3.0514   -4.8734 H   0  0  0  0  0  0  0  0  0  0  0  0
   -0.5576   -3.1116   -0.5867 H   0  0  0  0  0  0  0  0  0  0  0  0
  1  2  1  0
  2  3  2  0
  3  4  1  0
  4  5  2  0
  5  6  1  0
  6  7  2  0
  6  8  1  0
  8  9  1  0
  9 10  1  0
 10 11  1  0
  9 12  1  0
 12 13  1  0
 13 14  2  0
 13 15  1  0
 15 16  2  0
 16 17  1  0
 17 18  1  0
 18 19  2  0
 19 20  1  0
 20 21  2  0
 21 22  1  0
 22 23  2  0
 23 24  1  0
 24 25  1  0
 24 26  2  0
  2  7  1  0
 19 15  1  0
 20 26  1  0
  1 27  1  0
  1 28  1  0
  1 29  1  0
  3 30  1  0
  4 31  1  0
  5 32  1  0
  7 33  1  0
  8 34  1  0
  8 35  1  0
  9 36  1  0
 10 37  1  0
 10 38  1  0
 11 39  1  0
 12 40  1  0
 16 41  1  0
 17 42  1  0
 21 43  1  0
 22 44  1  0
 23 45  1  0
 26 46  1  0
M  END
$$$$
