
     RDKit          3D

 43 45  0  0  0  0  0  0  0  0999 V2000
   -3.3747   -1.1946   -4.7693 C   0  0  0  0  0  0  0  0  0  0  0  0
   -3.1850   -0.9113   -3.3453 N   0  0  0  0  0  0  0  0  0  0  0  0
   -4.2148   -1.2695   -2.3613 C   0  0  0  0  0  0  0  0  0  0  0  0
   -3.5722   -1.8422   -1.0927 C   0  0  0  0  0  0  0  0  0  0  0  0
   -2.5015   -0.9203   -0.5598 C   0  0  0  0  0  0  0  0  0  0  0  0
   -2.2183   -0.8937    0.8129 C   0  0  0  0  0  0  0  0  0  0  0  0
   -1.1855   -0.0932    1.3062 C   0  0  0  0  0  0  0  0  0  0  0  0
   -0.4154    0.6932    0.4324 C   0  0  0  0  0  0  0  0  0  0  0  0
   -0.6701    0.6353   -0.9456 C   0  0  0  0  0  0  0  0  0  0  0  0
   -1.7115   -0.1629   -1.4474 C   0  0  0  0  0  0  0  0  0  0  0  0
   -2.0031   -0.2254   -2.8953 C   0  0  0  0  0  0  0  0  0  0  0  0
   -1.2176    0.3033   -3.7292 O   0  0  0  0  0  0  0  0  0  0  0  0
    0.6715    1.5017    0.9140 N   0  0  0  0  0  0  0  0  0  0  0  0
    0.6885    2.1440    2.1980 C   0  0  0  0  0  0  0  0  0  0  0  0
   -0.3768    2.2948    2.8550 O   0  0  0  0  0  0  0  0  0  0  0  0
    1.9759    2.6777    2.7480 C   0  0  0  0  0  0  0  0  0  0  0  0
    2.9492    1.5894    2.8936 N   0  0  0  0  0  0  0  0  0  0  0  0
    4.1233    1.5272    2.0143 C   0  0  0  0  0  0  0  0  0  0  0  0
    4.4934    0.0733    1.7101 C   0  0  0  0  0  0  0  0  0  0  0  0
    4.7610   -0.6894    3.0112 C   0  0  0  0  0  0  0  0  0  0  0  0
    3.6354   -0.5610    3.9341 N   0  0  0  0  0  0  0  0  0  0  0  0
    2.7884    0.5934    3.9216 C   0  0  0  0  0  0  0  0  0  0  0  0
    1.8871    0.7136    4.7948 O   0  0  0  0  0  0  0  0  0  0  0  0
   -3.3614   -0.2457   -5.3459 H   0  0  0  0  0  0  0  0  0  0  0  0
   -2.5577   -1.8542   -5.1303 H   0  0  0  0  0  0  0  0  0  0  0  0
   -4.3451   -1.7005   -4.9571 H   0  0  0  0  0  0  0  0  0  0  0  0
   -4.9224   -2.0191   -2.7768 H   0  0  0  0  0  0  0  0  0  0  0  0
   -4.7945   -0.3581   -2.0979 H   0  0  0  0  0  0  0  0  0  0  0  0
   -4.3655   -1.9983   -0.3295 H   0  0  0  0  0  0  0  0  0  0  0  0
   -3.1133   -2.8273   -1.3249 H   0  0  0  0  0  0  0  0  0  0  0  0
   -2.7902   -1.5035    1.5015 H   0  0  0  0  0  0  0  0  0  0  0  0
   -0.9702   -0.1159    2.3662 H   0  0  0  0  0  0  0  0  0  0  0  0
   -0.0619    1.2239   -1.6217 H   0  0  0  0  0  0  0  0  0  0  0  0
    1.4761    1.6789    0.2709 H   0  0  0  0  0  0  0  0  0  0  0  0
    2.3584    3.4608    2.0585 H   0  0  0  0  0  0  0  0  0  0  0  0
    1.8091    3.1653    3.7333 H   0  0  0  0  0  0  0  0  0  0  0  0
    4.9785    2.0335    2.5121 H   0  0  0  0  0  0  0  0  0  0  0  0
    3.9226    2.0515    1.0548 H   0  0  0  0  0  0  0  0  0  0  0  0
    5.4013    0.0456    1.0700 H   0  0  0  0  0  0  0  0  0  0  0  0
    3.6596   -0.4130    1.1574 H   0  0  0  0  0  0  0  0  0  0  0  0
    5.6776   -0.2918    3.4979 H   0  0  0  0  0  0  0  0  0  0  0  0
    4.9274   -1.7631    2.7792 H   0  0  0  0  0  0  0  0  0  0  0  0
    3.5281   -1.2649    4.6988 H   0  0  0  0  0  0  0  0  0  0  0  0
  1  2  1  0
  2  3  1  0
  3  4  1  0
  4  5  1  0
  5  6  2  0
  6  7  1  0
  7  8  2  0
  8  9  1  0
  9 10  2  0
 10 11  1  0
 11 12  2  0
  8 13  1  0
 13 14  1  0
 14 15  2  0
 14 16  1  0
 16 17  1  0
 17 18  1  0
 18 19  1  0
 19 20  1  0
 20 21  1  0
 21 22  1  0
 22 23  2  0
 11  2  1  0
  5 10  1  0
 22 17  1  0
  1 24  1  0
  1 25  1  0
  1 26  1  0
  3 27  1  0
  3 28  1  0
  4 29  1  0
  4 30  1  0
  6 31  1  0
  7 32  1  0
  9 33  1  0
 13 34  1  0
 16 35  1  0
 16 36  1  0
 18 37  1  0
 18 38  1  0
 19 39  1  0
 19 40  1  0
 20 41  1  0
 20 42  1  0
 21 43  1  0
M  END
$$$$
