
     RDKit          3D

 44 47  0  0  0  0  0  0  0  0999 V2000
    0.6309   -2.7427    1.7774 O   0  0  0  0  0  0  0  0  0  0  0  0
    0.2290   -1.5743    1.5238 C   0  0  0  0  0  0  0  0  0  0  0  0
   -0.4837   -0.8102    2.6034 C   0  0  0  0  0  0  0  0  0  0  0  0
    0.6564   -0.5202    3.9954 S   0  0  0  0  0  0  0  0  0  0  0  0
   -0.5478    0.4114    4.9433 C   0  0  0  0  0  0  0  0  0  0  0  0
   -1.3914   -0.2463    5.8473 C   0  0  0  0  0  0  0  0  0  0  0  0
   -2.3344    0.4813    6.5798 C   0  0  0  0  0  0  0  0  0  0  0  0
   -2.4330    1.8667    6.4151 C   0  0  0  0  0  0  0  0  0  0  0  0
   -1.5888    2.5267    5.5145 C   0  0  0  0  0  0  0  0  0  0  0  0
   -1.7225    4.4180    5.2885 Br  0  0  0  0  0  0  0  0  0  0  0  0
   -0.6462    1.7992    4.7790 C   0  0  0  0  0  0  0  0  0  0  0  0
    0.5041   -0.9947    0.2333 N   0  0  0  0  0  0  0  0  0  0  0  0
   -0.4333   -0.0174   -0.3617 C   0  0  0  0  0  0  0  0  0  0  0  0
   -0.5167   -0.1639   -1.8890 C   0  0  0  0  0  0  0  0  0  0  0  0
    0.8605   -0.2652   -2.4601 C   0  0  0  0  0  0  0  0  0  0  0  0
    1.9282   -0.7355   -1.7534 C   0  0  0  0  0  0  0  0  0  0  0  0
    1.8502   -1.2078   -0.3369 C   0  0  0  0  0  0  0  0  0  0  0  0
    3.0421   -0.6951   -2.5101 N   0  0  0  0  0  0  0  0  0  0  0  0
    2.6077   -0.1907   -3.6888 C   0  0  0  0  0  0  0  0  0  0  0  0
    1.2798    0.0703   -3.6953 N   0  0  0  0  0  0  0  0  0  0  0  0
    0.5200    0.6117   -4.7906 C   0  0  0  0  0  0  0  0  0  0  0  0
   -0.7487    0.0975   -5.1098 C   0  0  0  0  0  0  0  0  0  0  0  0
   -1.4740    0.6229   -6.1833 C   0  0  0  0  0  0  0  0  0  0  0  0
   -0.9384    1.6606   -6.9509 C   0  0  0  0  0  0  0  0  0  0  0  0
   -1.6429    2.1671   -7.9933 F   0  0  0  0  0  0  0  0  0  0  0  0
    0.3277    2.1695   -6.6494 C   0  0  0  0  0  0  0  0  0  0  0  0
    1.0566    1.6453   -5.5778 C   0  0  0  0  0  0  0  0  0  0  0  0
   -1.3548   -1.4041    2.9534 H   0  0  0  0  0  0  0  0  0  0  0  0
   -0.8478    0.1709    2.2375 H   0  0  0  0  0  0  0  0  0  0  0  0
   -1.3234   -1.3190    5.9757 H   0  0  0  0  0  0  0  0  0  0  0  0
   -2.9907   -0.0289    7.2725 H   0  0  0  0  0  0  0  0  0  0  0  0
   -3.1653    2.4249    6.9844 H   0  0  0  0  0  0  0  0  0  0  0  0
    0.0028    2.3092    4.0775 H   0  0  0  0  0  0  0  0  0  0  0  0
   -1.4585   -0.1616    0.0443 H   0  0  0  0  0  0  0  0  0  0  0  0
   -0.0961    1.0105   -0.1048 H   0  0  0  0  0  0  0  0  0  0  0  0
   -1.0794   -1.0885   -2.1391 H   0  0  0  0  0  0  0  0  0  0  0  0
   -1.0474    0.7143   -2.3146 H   0  0  0  0  0  0  0  0  0  0  0  0
    2.6006   -0.6632    0.2746 H   0  0  0  0  0  0  0  0  0  0  0  0
    2.0966   -2.2907   -0.3268 H   0  0  0  0  0  0  0  0  0  0  0  0
    3.2581   -0.0314   -4.5391 H   0  0  0  0  0  0  0  0  0  0  0  0
   -1.1663   -0.7256   -4.5468 H   0  0  0  0  0  0  0  0  0  0  0  0
   -2.4489    0.2188   -6.4248 H   0  0  0  0  0  0  0  0  0  0  0  0
    0.7455    2.9702   -7.2463 H   0  0  0  0  0  0  0  0  0  0  0  0
    2.0329    2.0542   -5.3523 H   0  0  0  0  0  0  0  0  0  0  0  0
  1  2  2  0
  2  3  1  0
  3  4  1  0
  4  5  1  0
  5  6  2  0
  6  7  1  0
  7  8  2  0
  8  9  1  0
  9 10  1  0
  9 11  2  0
  2 12  1  0
 12 13  1  0
 13 14  1  0
 14 15  1  0
 15 16  2  0
 16 17  1  0
 16 18  1  0
 18 19  2  0
 19 20  1  0
 20 21  1  0
 21 22  2  0
 22 23  1  0
 23 24  2  0
 24 25  1  0
 24 26  1  0
 26 27  2  0
  5 11  1  0
 17 12  1  0
 20 15  1  0
 21 27  1  0
  3 28  1  0
  3 29  1  0
  6 30  1  0
  7 31  1  0
  8 32  1  0
 11 33  1  0
 13 34  1  0
 13 35  1  0
 14 36  1  0
 14 37  1  0
 17 38  1  0
 17 39  1  0
 19 40  1  0
 22 41  1  0
 23 42  1  0
 26 43  1  0
 27 44  1  0
M  END
$$$$
