
     RDKit          3D

 49 52  0  0  0  0  0  0  0  0999 V2000
   -4.8448    1.7362    0.1635 C   0  0  0  0  0  0  0  0  0  0  0  0
   -4.3441    2.3685   -1.0571 N   0  0  0  0  0  0  0  0  0  0  0  0
   -5.0871    2.2268   -2.3084 C   0  0  0  0  0  0  0  0  0  0  0  0
   -3.1504    3.1678   -1.0272 C   0  0  0  0  0  0  0  0  0  0  0  0
   -3.2134    4.5480   -1.3088 C   0  0  0  0  0  0  0  0  0  0  0  0
   -2.0533    5.3434   -1.2660 C   0  0  0  0  0  0  0  0  0  0  0  0
   -0.8138    4.7728   -0.9461 C   0  0  0  0  0  0  0  0  0  0  0  0
   -0.7667    3.4079   -0.6785 C   0  0  0  0  0  0  0  0  0  0  0  0
    0.5763    2.4775   -0.2989 S   0  0  0  0  0  0  0  0  0  0  0  0
   -0.2757    1.0189   -0.1829 C   0  0  0  0  0  0  0  0  0  0  0  0
   -1.6271    1.2563   -0.4449 C   0  0  0  0  0  0  0  0  0  0  0  0
   -1.8993    2.6056   -0.7158 C   0  0  0  0  0  0  0  0  0  0  0  0
    0.3086   -0.2976    0.1332 C   0  0  0  0  0  0  0  0  0  0  0  0
   -0.4474   -1.3050    0.1848 O   0  0  0  0  0  0  0  0  0  0  0  0
    1.7204   -0.4377    0.3801 N   0  0  0  0  0  0  0  0  0  0  0  0
    2.3757   -1.7241    0.6911 C   0  0  0  0  0  0  0  0  0  0  0  0
    1.9507   -2.2067    2.0780 C   0  0  0  0  0  0  0  0  0  0  0  0
    2.8470   -1.4351    3.0317 C   0  0  0  0  0  0  0  0  0  0  0  0
    4.0660   -1.0689    2.3062 N   0  0  0  0  0  0  0  0  0  0  0  0
    3.8803   -1.5031    0.9204 C   0  0  0  0  0  0  0  0  0  0  0  0
    2.1320   -2.7188   -0.4494 C   0  0  0  0  0  0  0  0  0  0  0  0
    1.2259   -3.7964   -0.3308 C   0  0  0  0  0  0  0  0  0  0  0  0
    0.9967   -4.6561   -1.4091 C   0  0  0  0  0  0  0  0  0  0  0  0
    1.6475   -4.4460   -2.6253 C   0  0  0  0  0  0  0  0  0  0  0  0
    2.5207   -3.3677   -2.7706 C   0  0  0  0  0  0  0  0  0  0  0  0
    2.7541   -2.5043   -1.6968 C   0  0  0  0  0  0  0  0  0  0  0  0
   -4.9028    0.6368    0.0201 H   0  0  0  0  0  0  0  0  0  0  0  0
   -4.1781    1.9499    1.0266 H   0  0  0  0  0  0  0  0  0  0  0  0
   -5.8571    2.1276    0.3975 H   0  0  0  0  0  0  0  0  0  0  0  0
   -5.4516    3.2180   -2.6494 H   0  0  0  0  0  0  0  0  0  0  0  0
   -5.9636    1.5568   -2.1757 H   0  0  0  0  0  0  0  0  0  0  0  0
   -4.4259    1.7917   -3.0871 H   0  0  0  0  0  0  0  0  0  0  0  0
   -4.1626    5.0109   -1.5463 H   0  0  0  0  0  0  0  0  0  0  0  0
   -2.1185    6.4023   -1.4795 H   0  0  0  0  0  0  0  0  0  0  0  0
    0.0830    5.3778   -0.9140 H   0  0  0  0  0  0  0  0  0  0  0  0
   -2.3772    0.4767   -0.4480 H   0  0  0  0  0  0  0  0  0  0  0  0
    2.3099    0.4233    0.3313 H   0  0  0  0  0  0  0  0  0  0  0  0
    0.8768   -2.0271    2.2974 H   0  0  0  0  0  0  0  0  0  0  0  0
    2.1734   -3.2903    2.2019 H   0  0  0  0  0  0  0  0  0  0  0  0
    2.3156   -0.5229    3.3882 H   0  0  0  0  0  0  0  0  0  0  0  0
    3.1081   -2.0586    3.9134 H   0  0  0  0  0  0  0  0  0  0  0  0
    4.1551   -0.0250    2.3140 H   0  0  0  0  0  0  0  0  0  0  0  0
    4.3110   -0.7616    0.2103 H   0  0  0  0  0  0  0  0  0  0  0  0
    4.4345   -2.4586    0.7826 H   0  0  0  0  0  0  0  0  0  0  0  0
    0.6767   -3.9725    0.5836 H   0  0  0  0  0  0  0  0  0  0  0  0
    0.3047   -5.4818   -1.3038 H   0  0  0  0  0  0  0  0  0  0  0  0
    1.4654   -5.1117   -3.4591 H   0  0  0  0  0  0  0  0  0  0  0  0
    3.0123   -3.1953   -3.7194 H   0  0  0  0  0  0  0  0  0  0  0  0
    3.4183   -1.6624   -1.8429 H   0  0  0  0  0  0  0  0  0  0  0  0
  1  2  1  0
  2  3  1  0
  2  4  1  0
  4  5  2  0
  5  6  1  0
  6  7  2  0
  7  8  1  0
  8  9  1  0
  9 10  1  0
 10 11  2  0
 11 12  1  0
 10 13  1  0
 13 14  2  0
 13 15  1  0
 15 16  1  0
 16 17  1  0
 17 18  1  0
 18 19  1  0
 19 20  1  0
 16 21  1  0
 21 22  2  0
 22 23  1  0
 23 24  2  0
 24 25  1  0
 25 26  2  0
  4 12  1  0
 12  8  2  0
 20 16  1  0
 21 26  1  0
  1 27  1  0
  1 28  1  0
  1 29  1  0
  3 30  1  0
  3 31  1  0
  3 32  1  0
  5 33  1  0
  6 34  1  0
  7 35  1  0
 11 36  1  0
 15 37  1  0
 17 38  1  0
 17 39  1  0
 18 40  1  0
 18 41  1  0
 19 42  1  0
 20 43  1  0
 20 44  1  0
 22 45  1  0
 23 46  1  0
 24 47  1  0
 25 48  1  0
 26 49  1  0
M  END
$$$$
