
     RDKit          3D

 40 43  0  0  0  0  0  0  0  0999 V2000
   -0.9248    0.2465   -3.4475 O   0  0  0  0  0  0  0  0  0  0  0  0
   -0.8420    0.5037   -2.2149 C   0  0  0  0  0  0  0  0  0  0  0  0
    0.3210    1.1753   -1.7078 N   0  0  0  0  0  0  0  0  0  0  0  0
    1.5558    1.2410   -2.4313 C   0  0  0  0  0  0  0  0  0  0  0  0
    2.3142    2.3566   -2.5058 N   0  0  0  0  0  0  0  0  0  0  0  0
    3.3933    2.0512   -3.2210 N   0  0  0  0  0  0  0  0  0  0  0  0
    3.2707    0.7523   -3.5539 C   0  0  0  0  0  0  0  0  0  0  0  0
    4.1863   -0.0127   -4.2718 C   0  0  0  0  0  0  0  0  0  0  0  0
    3.8879   -1.3731   -4.4578 C   0  0  0  0  0  0  0  0  0  0  0  0
    2.7094   -1.9251   -3.9158 C   0  0  0  0  0  0  0  0  0  0  0  0
    1.8271   -1.1033   -3.1975 C   0  0  0  0  0  0  0  0  0  0  0  0
    2.1424    0.2126   -3.0713 N   0  0  0  0  0  0  0  0  0  0  0  0
   -1.9661    0.1487   -1.3157 C   0  0  0  0  0  0  0  0  0  0  0  0
   -3.2362   -0.1357   -1.8477 C   0  0  0  0  0  0  0  0  0  0  0  0
   -4.2941   -0.4851   -1.0055 C   0  0  0  0  0  0  0  0  0  0  0  0
   -4.1001   -0.5513    0.3752 C   0  0  0  0  0  0  0  0  0  0  0  0
   -2.8468   -0.2595    0.9292 C   0  0  0  0  0  0  0  0  0  0  0  0
   -1.7764    0.0654    0.0761 C   0  0  0  0  0  0  0  0  0  0  0  0
   -2.6614   -0.3657    2.3515 N   0  0  0  0  0  0  0  0  0  0  0  0
   -1.7257    0.4206    3.1097 C   0  0  0  0  0  0  0  0  0  0  0  0
   -1.4090    1.7409    2.7384 C   0  0  0  0  0  0  0  0  0  0  0  0
   -0.5143    2.4936    3.5054 C   0  0  0  0  0  0  0  0  0  0  0  0
    0.0583    1.9432    4.6549 C   0  0  0  0  0  0  0  0  0  0  0  0
   -0.2690    0.6416    5.0437 C   0  0  0  0  0  0  0  0  0  0  0  0
   -1.1631   -0.1144    4.2790 C   0  0  0  0  0  0  0  0  0  0  0  0
    0.2124    1.8061   -0.8825 H   0  0  0  0  0  0  0  0  0  0  0  0
    5.0982    0.4200   -4.6624 H   0  0  0  0  0  0  0  0  0  0  0  0
    4.5740   -2.0038   -5.0079 H   0  0  0  0  0  0  0  0  0  0  0  0
    2.4916   -2.9774   -4.0436 H   0  0  0  0  0  0  0  0  0  0  0  0
    0.9362   -1.5184   -2.7466 H   0  0  0  0  0  0  0  0  0  0  0  0
   -3.4129   -0.0857   -2.9149 H   0  0  0  0  0  0  0  0  0  0  0  0
   -5.2675   -0.7051   -1.4246 H   0  0  0  0  0  0  0  0  0  0  0  0
   -4.9290   -0.8241    1.0164 H   0  0  0  0  0  0  0  0  0  0  0  0
   -0.7922    0.2192    0.4980 H   0  0  0  0  0  0  0  0  0  0  0  0
   -3.2455   -1.0616    2.8691 H   0  0  0  0  0  0  0  0  0  0  0  0
   -1.8637    2.1941    1.8672 H   0  0  0  0  0  0  0  0  0  0  0  0
   -0.2708    3.5067    3.2125 H   0  0  0  0  0  0  0  0  0  0  0  0
    0.7494    2.5277    5.2484 H   0  0  0  0  0  0  0  0  0  0  0  0
    0.1685    0.2188    5.9388 H   0  0  0  0  0  0  0  0  0  0  0  0
   -1.4107   -1.1212    4.5910 H   0  0  0  0  0  0  0  0  0  0  0  0
  1  2  2  0
  2  3  1  0
  3  4  1  0
  4  5  2  0
  5  6  1  0
  6  7  2  0
  7  8  1  0
  8  9  2  0
  9 10  1  0
 10 11  2  0
 11 12  1  0
  2 13  1  0
 13 14  2  0
 14 15  1  0
 15 16  2  0
 16 17  1  0
 17 18  2  0
 17 19  1  0
 19 20  1  0
 20 21  2  0
 21 22  1  0
 22 23  2  0
 23 24  1  0
 24 25  2  0
 12  4  1  0
 12  7  1  0
 13 18  1  0
 20 25  1  0
  3 26  1  0
  8 27  1  0
  9 28  1  0
 10 29  1  0
 11 30  1  0
 14 31  1  0
 15 32  1  0
 16 33  1  0
 18 34  1  0
 19 35  1  0
 21 36  1  0
 22 37  1  0
 23 38  1  0
 24 39  1  0
 25 40  1  0
M  END
$$$$
