
     RDKit          3D

 51 53  0  0  0  0  0  0  0  0999 V2000
   -0.1428   -1.5472    2.1765 C   0  0  0  0  0  0  0  0  0  0  0  0
    0.9075   -2.5502    2.3924 N   0  0  0  0  0  0  0  0  0  0  0  0
    0.6941   -3.6290    3.3641 C   0  0  0  0  0  0  0  0  0  0  0  0
    2.1220   -2.5424    1.6071 C   0  0  0  0  0  0  0  0  0  0  0  0
    2.9621   -3.4733    1.7601 O   0  0  0  0  0  0  0  0  0  0  0  0
    2.3723   -1.4917    0.5418 C   0  0  0  0  0  0  0  0  0  0  0  0
    1.6037   -1.8157   -0.6638 N   0  0  0  0  0  0  0  0  0  0  0  0
    1.3072   -0.8371   -1.6702 C   0  0  0  0  0  0  0  0  0  0  0  0
    1.7969    0.3235   -1.5936 O   0  0  0  0  0  0  0  0  0  0  0  0
    0.4139   -1.1865   -2.8235 C   0  0  0  0  0  0  0  0  0  0  0  0
   -0.7752   -0.2736   -2.8535 C   0  0  0  0  0  0  0  0  0  0  0  0
   -0.9206    0.7520   -3.7841 C   0  0  0  0  0  0  0  0  0  0  0  0
   -2.3532    1.5574   -3.4370 S   0  0  0  0  0  0  0  0  0  0  0  0
   -2.7280    0.5745   -2.1193 C   0  0  0  0  0  0  0  0  0  0  0  0
   -1.7735   -0.3654   -1.9313 N   0  0  0  0  0  0  0  0  0  0  0  0
   -3.8964    0.7179   -1.2801 N   0  0  0  0  0  0  0  0  0  0  0  0
   -4.9121    1.7247   -1.6359 C   0  0  0  0  0  0  0  0  0  0  0  0
   -6.2670    1.4292   -0.9859 C   0  0  0  0  0  0  0  0  0  0  0  0
   -6.1046    1.2875    0.5244 C   0  0  0  0  0  0  0  0  0  0  0  0
   -5.1425    0.2350    0.8234 N   0  0  0  0  0  0  0  0  0  0  0  0
   -4.0164    0.0020   -0.0285 C   0  0  0  0  0  0  0  0  0  0  0  0
   -3.1554   -0.8506    0.3164 O   0  0  0  0  0  0  0  0  0  0  0  0
    3.8493   -1.3616    0.2190 C   0  0  0  0  0  0  0  0  0  0  0  0
    4.4849   -2.2642   -0.6574 C   0  0  0  0  0  0  0  0  0  0  0  0
    5.8553   -2.1511   -0.9155 C   0  0  0  0  0  0  0  0  0  0  0  0
    6.6046   -1.1453   -0.3008 C   0  0  0  0  0  0  0  0  0  0  0  0
    5.9876   -0.2568    0.5823 C   0  0  0  0  0  0  0  0  0  0  0  0
    4.6183   -0.3627    0.8451 C   0  0  0  0  0  0  0  0  0  0  0  0
    0.2242   -0.5426    2.4742 H   0  0  0  0  0  0  0  0  0  0  0  0
   -1.0531   -1.7699    2.7720 H   0  0  0  0  0  0  0  0  0  0  0  0
   -0.4405   -1.5331    1.1071 H   0  0  0  0  0  0  0  0  0  0  0  0
    1.5689   -3.7047    4.0478 H   0  0  0  0  0  0  0  0  0  0  0  0
   -0.2052   -3.4523    3.9861 H   0  0  0  0  0  0  0  0  0  0  0  0
    0.5638   -4.5908    2.8269 H   0  0  0  0  0  0  0  0  0  0  0  0
    2.0121   -0.5157    0.9335 H   0  0  0  0  0  0  0  0  0  0  0  0
    1.2812   -2.7994   -0.8146 H   0  0  0  0  0  0  0  0  0  0  0  0
    0.0556   -2.2371   -2.7373 H   0  0  0  0  0  0  0  0  0  0  0  0
    0.9967   -1.1049   -3.7693 H   0  0  0  0  0  0  0  0  0  0  0  0
   -0.2307    0.9930   -4.5811 H   0  0  0  0  0  0  0  0  0  0  0  0
   -4.5590    2.7280   -1.3153 H   0  0  0  0  0  0  0  0  0  0  0  0
   -5.0641    1.7442   -2.7360 H   0  0  0  0  0  0  0  0  0  0  0  0
   -6.9732    2.2558   -1.2073 H   0  0  0  0  0  0  0  0  0  0  0  0
   -6.6844    0.4890   -1.4063 H   0  0  0  0  0  0  0  0  0  0  0  0
   -5.7430    2.2463    0.9563 H   0  0  0  0  0  0  0  0  0  0  0  0
   -7.0849    1.0431    0.9853 H   0  0  0  0  0  0  0  0  0  0  0  0
   -5.2743   -0.3508    1.6789 H   0  0  0  0  0  0  0  0  0  0  0  0
    3.9245   -3.0611   -1.1295 H   0  0  0  0  0  0  0  0  0  0  0  0
    6.3350   -2.8446   -1.5944 H   0  0  0  0  0  0  0  0  0  0  0  0
    7.6656   -1.0614   -0.5007 H   0  0  0  0  0  0  0  0  0  0  0  0
    6.5700    0.5186    1.0617 H   0  0  0  0  0  0  0  0  0  0  0  0
    4.1596    0.3303    1.5392 H   0  0  0  0  0  0  0  0  0  0  0  0
  1  2  1  0
  2  3  1  0
  2  4  1  0
  4  5  2  0
  4  6  1  0
  6  7  1  0
  7  8  1  0
  8  9  2  0
  8 10  1  0
 10 11  1  0
 11 12  2  0
 12 13  1  0
 13 14  1  0
 14 15  2  0
 14 16  1  0
 16 17  1  0
 17 18  1  0
 18 19  1  0
 19 20  1  0
 20 21  1  0
 21 22  2  0
  6 23  1  0
 23 24  2  0
 24 25  1  0
 25 26  2  0
 26 27  1  0
 27 28  2  0
 15 11  1  0
 21 16  1  0
 23 28  1  0
  1 29  1  0
  1 30  1  0
  1 31  1  0
  3 32  1  0
  3 33  1  0
  3 34  1  0
  6 35  1  0
  7 36  1  0
 10 37  1  0
 10 38  1  0
 12 39  1  0
 17 40  1  0
 17 41  1  0
 18 42  1  0
 18 43  1  0
 19 44  1  0
 19 45  1  0
 20 46  1  0
 24 47  1  0
 25 48  1  0
 26 49  1  0
 27 50  1  0
 28 51  1  0
M  END
$$$$
