
     RDKit          3D

 44 47  0  0  0  0  0  0  0  0999 V2000
   -2.0291    0.3436   -3.7593 O   0  0  0  0  0  0  0  0  0  0  0  0
   -0.8655    0.1440   -3.3147 C   0  0  0  0  0  0  0  0  0  0  0  0
    0.0555   -0.7137   -4.1428 C   0  0  0  0  0  0  0  0  0  0  0  0
   -0.2258   -2.4892   -3.8090 S   0  0  0  0  0  0  0  0  0  0  0  0
    0.5580   -2.4989   -2.1939 C   0  0  0  0  0  0  0  0  0  0  0  0
   -0.2212   -2.3793   -1.0362 C   0  0  0  0  0  0  0  0  0  0  0  0
    0.3892   -2.3742    0.2219 C   0  0  0  0  0  0  0  0  0  0  0  0
    1.7783   -2.4876    0.3266 C   0  0  0  0  0  0  0  0  0  0  0  0
    2.5584   -2.6238   -0.8271 C   0  0  0  0  0  0  0  0  0  0  0  0
    4.4562   -2.7736   -0.6837 Br  0  0  0  0  0  0  0  0  0  0  0  0
    1.9475   -2.6411   -2.0865 C   0  0  0  0  0  0  0  0  0  0  0  0
   -0.4884    0.6855   -2.0237 N   0  0  0  0  0  0  0  0  0  0  0  0
   -1.5371    1.2781   -1.1626 C   0  0  0  0  0  0  0  0  0  0  0  0
   -1.3233    0.9116    0.3147 C   0  0  0  0  0  0  0  0  0  0  0  0
    0.1150    1.0981    0.6821 C   0  0  0  0  0  0  0  0  0  0  0  0
    1.1281    1.1252   -0.2330 C   0  0  0  0  0  0  0  0  0  0  0  0
    0.9300    0.9652   -1.7062 C   0  0  0  0  0  0  0  0  0  0  0  0
    2.3101    1.3127    0.3853 N   0  0  0  0  0  0  0  0  0  0  0  0
    1.9755    1.3903    1.6945 C   0  0  0  0  0  0  0  0  0  0  0  0
    0.6471    1.2498    1.9096 N   0  0  0  0  0  0  0  0  0  0  0  0
   -0.0194    1.2783    3.1836 C   0  0  0  0  0  0  0  0  0  0  0  0
    0.3475    2.2315    4.1488 C   0  0  0  0  0  0  0  0  0  0  0  0
   -0.2897    2.2590    5.3931 C   0  0  0  0  0  0  0  0  0  0  0  0
   -1.2908    1.3296    5.6880 C   0  0  0  0  0  0  0  0  0  0  0  0
   -1.9064    1.3560    6.8957 F   0  0  0  0  0  0  0  0  0  0  0  0
   -1.6517    0.3681    4.7402 C   0  0  0  0  0  0  0  0  0  0  0  0
   -1.0173    0.3385    3.4945 C   0  0  0  0  0  0  0  0  0  0  0  0
    1.1238   -0.4528   -4.0259 H   0  0  0  0  0  0  0  0  0  0  0  0
   -0.1757   -0.5407   -5.2151 H   0  0  0  0  0  0  0  0  0  0  0  0
   -1.2964   -2.2789   -1.1110 H   0  0  0  0  0  0  0  0  0  0  0  0
   -0.2130   -2.2723    1.1152 H   0  0  0  0  0  0  0  0  0  0  0  0
    2.2465   -2.4698    1.3022 H   0  0  0  0  0  0  0  0  0  0  0  0
    2.5523   -2.7416   -2.9788 H   0  0  0  0  0  0  0  0  0  0  0  0
   -2.5495    0.9240   -1.4531 H   0  0  0  0  0  0  0  0  0  0  0  0
   -1.5171    2.3838   -1.2776 H   0  0  0  0  0  0  0  0  0  0  0  0
   -1.6047   -0.1504    0.4682 H   0  0  0  0  0  0  0  0  0  0  0  0
   -1.9667    1.5527    0.9539 H   0  0  0  0  0  0  0  0  0  0  0  0
    1.2516    1.8910   -2.2276 H   0  0  0  0  0  0  0  0  0  0  0  0
    1.5832    0.1303   -2.0142 H   0  0  0  0  0  0  0  0  0  0  0  0
    2.7029    1.5323    2.4834 H   0  0  0  0  0  0  0  0  0  0  0  0
    1.1170    2.9614    3.9314 H   0  0  0  0  0  0  0  0  0  0  0  0
   -0.0065    3.0016    6.1279 H   0  0  0  0  0  0  0  0  0  0  0  0
   -2.4181   -0.3601    4.9725 H   0  0  0  0  0  0  0  0  0  0  0  0
   -1.2871   -0.4330    2.7873 H   0  0  0  0  0  0  0  0  0  0  0  0
  1  2  2  0
  2  3  1  0
  3  4  1  0
  4  5  1  0
  5  6  2  0
  6  7  1  0
  7  8  2  0
  8  9  1  0
  9 10  1  0
  9 11  2  0
  2 12  1  0
 12 13  1  0
 13 14  1  0
 14 15  1  0
 15 16  2  0
 16 17  1  0
 16 18  1  0
 18 19  2  0
 19 20  1  0
 20 21  1  0
 21 22  2  0
 22 23  1  0
 23 24  2  0
 24 25  1  0
 24 26  1  0
 26 27  2  0
  5 11  1  0
 17 12  1  0
 20 15  1  0
 21 27  1  0
  3 28  1  0
  3 29  1  0
  6 30  1  0
  7 31  1  0
  8 32  1  0
 11 33  1  0
 13 34  1  0
 13 35  1  0
 14 36  1  0
 14 37  1  0
 17 38  1  0
 17 39  1  0
 19 40  1  0
 22 41  1  0
 23 42  1  0
 26 43  1  0
 27 44  1  0
M  END
$$$$
