
     RDKit          3D

 43 45  0  0  0  0  0  0  0  0999 V2000
    1.3459    2.7768    1.5956 O   0  0  0  0  0  0  0  0  0  0  0  0
    0.8260    1.8444    0.9231 C   0  0  0  0  0  0  0  0  0  0  0  0
   -0.4420    1.2987    1.3250 N   0  0  0  0  0  0  0  0  0  0  0  0
   -0.9652    1.3946    2.6616 C   0  0  0  0  0  0  0  0  0  0  0  0
   -0.1146    1.3985    3.7807 C   0  0  0  0  0  0  0  0  0  0  0  0
   -0.6475    1.4718    5.0690 C   0  0  0  0  0  0  0  0  0  0  0  0
   -2.0301    1.5271    5.2543 C   0  0  0  0  0  0  0  0  0  0  0  0
   -2.8973    1.4979    4.1564 C   0  0  0  0  0  0  0  0  0  0  0  0
   -2.3555    1.4297    2.8567 C   0  0  0  0  0  0  0  0  0  0  0  0
   -4.2789    1.5496    4.4079 O   0  0  0  0  0  0  0  0  0  0  0  0
   -5.3163    1.3908    3.4388 C   0  0  0  0  0  0  0  0  0  0  0  0
   -5.5666   -0.0860    3.1430 C   0  0  0  0  0  0  0  0  0  0  0  0
   -4.4683   -0.6594    2.5304 F   0  0  0  0  0  0  0  0  0  0  0  0
    1.5085    1.3605   -0.3018 C   0  0  0  0  0  0  0  0  0  0  0  0
    1.1902    0.1101   -0.8615 C   0  0  0  0  0  0  0  0  0  0  0  0
    1.8448   -0.3407   -2.0115 C   0  0  0  0  0  0  0  0  0  0  0  0
    2.8446    0.4412   -2.6139 C   0  0  0  0  0  0  0  0  0  0  0  0
    3.1519    1.6940   -2.0671 C   0  0  0  0  0  0  0  0  0  0  0  0
    2.5001    2.1456   -0.9161 C   0  0  0  0  0  0  0  0  0  0  0  0
    3.5137    0.0104   -3.8112 N   0  0  0  0  0  0  0  0  0  0  0  0
    3.8716   -1.3507   -4.0904 C   0  0  0  0  0  0  0  0  0  0  0  0
    3.8398   -2.2964   -3.1109 N   0  0  0  0  0  0  0  0  0  0  0  0
    4.2057   -3.5799   -3.3629 C   0  0  0  0  0  0  0  0  0  0  0  0
    4.6320   -3.9430   -4.6392 C   0  0  0  0  0  0  0  0  0  0  0  0
    4.6726   -2.9622   -5.6289 C   0  0  0  0  0  0  0  0  0  0  0  0
    4.2981   -1.6894   -5.3372 N   0  0  0  0  0  0  0  0  0  0  0  0
   -1.0671    0.9118    0.5824 H   0  0  0  0  0  0  0  0  0  0  0  0
    0.9582    1.3238    3.6627 H   0  0  0  0  0  0  0  0  0  0  0  0
    0.0126    1.4778    5.9268 H   0  0  0  0  0  0  0  0  0  0  0  0
   -2.4318    1.5826    6.2582 H   0  0  0  0  0  0  0  0  0  0  0  0
   -2.9978    1.4147    1.9885 H   0  0  0  0  0  0  0  0  0  0  0  0
   -6.2493    1.8166    3.8645 H   0  0  0  0  0  0  0  0  0  0  0  0
   -5.0979    1.9589    2.5109 H   0  0  0  0  0  0  0  0  0  0  0  0
   -6.4436   -0.1846    2.4692 H   0  0  0  0  0  0  0  0  0  0  0  0
   -5.7813   -0.6283    4.0880 H   0  0  0  0  0  0  0  0  0  0  0  0
    0.4440   -0.5293   -0.4086 H   0  0  0  0  0  0  0  0  0  0  0  0
    1.5535   -1.2908   -2.4392 H   0  0  0  0  0  0  0  0  0  0  0  0
    3.9072    2.3177   -2.5287 H   0  0  0  0  0  0  0  0  0  0  0  0
    2.7653    3.1153   -0.5134 H   0  0  0  0  0  0  0  0  0  0  0  0
    3.8339    0.7414   -4.4863 H   0  0  0  0  0  0  0  0  0  0  0  0
    4.1683   -4.3164   -2.5714 H   0  0  0  0  0  0  0  0  0  0  0  0
    4.9281   -4.9612   -4.8557 H   0  0  0  0  0  0  0  0  0  0  0  0
    5.0045   -3.2110   -6.6280 H   0  0  0  0  0  0  0  0  0  0  0  0
  1  2  2  0
  2  3  1  0
  3  4  1  0
  4  5  2  0
  5  6  1  0
  6  7  2  0
  7  8  1  0
  8  9  2  0
  8 10  1  0
 10 11  1  0
 11 12  1  0
 12 13  1  0
  2 14  1  0
 14 15  2  0
 15 16  1  0
 16 17  2  0
 17 18  1  0
 18 19  2  0
 17 20  1  0
 20 21  1  0
 21 22  2  0
 22 23  1  0
 23 24  2  0
 24 25  1  0
 25 26  2  0
  4  9  1  0
 14 19  1  0
 21 26  1  0
  3 27  1  0
  5 28  1  0
  6 29  1  0
  7 30  1  0
  9 31  1  0
 11 32  1  0
 11 33  1  0
 12 34  1  0
 12 35  1  0
 15 36  1  0
 16 37  1  0
 18 38  1  0
 19 39  1  0
 20 40  1  0
 23 41  1  0
 24 42  1  0
 25 43  1  0
M  END
$$$$
