
     RDKit          3D

 51 53  0  0  0  0  0  0  0  0999 V2000
   -3.8409    0.2739    0.9264 C   0  0  0  0  0  0  0  0  0  0  0  0
   -2.8226   -0.0700    1.9254 N   0  0  0  0  0  0  0  0  0  0  0  0
   -3.2262   -0.6630    3.2058 C   0  0  0  0  0  0  0  0  0  0  0  0
   -1.4324    0.1880    1.6226 C   0  0  0  0  0  0  0  0  0  0  0  0
   -1.1260    0.6871    0.5029 O   0  0  0  0  0  0  0  0  0  0  0  0
   -0.3186   -0.1730    2.5879 C   0  0  0  0  0  0  0  0  0  0  0  0
    0.8561    0.6768    2.3625 N   0  0  0  0  0  0  0  0  0  0  0  0
    0.8330    2.0897    2.6113 C   0  0  0  0  0  0  0  0  0  0  0  0
   -0.0969    2.6027    3.2922 O   0  0  0  0  0  0  0  0  0  0  0  0
    1.8823    2.9694    2.0061 C   0  0  0  0  0  0  0  0  0  0  0  0
    1.6528    3.0706    0.5303 C   0  0  0  0  0  0  0  0  0  0  0  0
    0.9598    4.1224   -0.0634 C   0  0  0  0  0  0  0  0  0  0  0  0
    0.8215    3.7793   -1.7032 S   0  0  0  0  0  0  0  0  0  0  0  0
    1.6484    2.3120   -1.5927 C   0  0  0  0  0  0  0  0  0  0  0  0
    2.0186    2.0678   -0.3153 N   0  0  0  0  0  0  0  0  0  0  0  0
    1.8642    1.3682   -2.6669 N   0  0  0  0  0  0  0  0  0  0  0  0
    2.2354   -0.0138   -2.3083 C   0  0  0  0  0  0  0  0  0  0  0  0
    2.8109   -0.7893   -3.4989 C   0  0  0  0  0  0  0  0  0  0  0  0
    1.8495   -0.7262   -4.6838 C   0  0  0  0  0  0  0  0  0  0  0  0
    1.5960    0.6642   -5.0425 N   0  0  0  0  0  0  0  0  0  0  0  0
    1.5755    1.6922   -4.0475 C   0  0  0  0  0  0  0  0  0  0  0  0
    1.3557    2.8805   -4.4043 O   0  0  0  0  0  0  0  0  0  0  0  0
    0.0579   -1.6333    2.4345 C   0  0  0  0  0  0  0  0  0  0  0  0
    0.0330   -2.4932    3.5473 C   0  0  0  0  0  0  0  0  0  0  0  0
    0.4006   -3.8361    3.4117 C   0  0  0  0  0  0  0  0  0  0  0  0
    0.8043   -4.3315    2.1690 C   0  0  0  0  0  0  0  0  0  0  0  0
    0.8405   -3.4853    1.0586 C   0  0  0  0  0  0  0  0  0  0  0  0
    0.4729   -2.1429    1.1884 C   0  0  0  0  0  0  0  0  0  0  0  0
   -3.7962    1.3621    0.7058 H   0  0  0  0  0  0  0  0  0  0  0  0
   -3.6563   -0.2971   -0.0085 H   0  0  0  0  0  0  0  0  0  0  0  0
   -4.8664    0.0367    1.2798 H   0  0  0  0  0  0  0  0  0  0  0  0
   -2.9621    0.0214    4.0391 H   0  0  0  0  0  0  0  0  0  0  0  0
   -4.3207   -0.8414    3.2495 H   0  0  0  0  0  0  0  0  0  0  0  0
   -2.7223   -1.6411    3.3473 H   0  0  0  0  0  0  0  0  0  0  0  0
   -0.6650    0.0112    3.6272 H   0  0  0  0  0  0  0  0  0  0  0  0
    1.7059    0.2746    1.9038 H   0  0  0  0  0  0  0  0  0  0  0  0
    2.8860    2.5325    2.1964 H   0  0  0  0  0  0  0  0  0  0  0  0
    1.8564    3.9792    2.4716 H   0  0  0  0  0  0  0  0  0  0  0  0
    0.5574    4.9897    0.4419 H   0  0  0  0  0  0  0  0  0  0  0  0
    1.3360   -0.5431   -1.9213 H   0  0  0  0  0  0  0  0  0  0  0  0
    3.0048   -0.0072   -1.5040 H   0  0  0  0  0  0  0  0  0  0  0  0
    3.7913   -0.3499   -3.7903 H   0  0  0  0  0  0  0  0  0  0  0  0
    2.9749   -1.8497   -3.2082 H   0  0  0  0  0  0  0  0  0  0  0  0
    2.2939   -1.2603   -5.5523 H   0  0  0  0  0  0  0  0  0  0  0  0
    0.8876   -1.2208   -4.4199 H   0  0  0  0  0  0  0  0  0  0  0  0
    1.4228    0.9095   -6.0429 H   0  0  0  0  0  0  0  0  0  0  0  0
   -0.2698   -2.1263    4.5206 H   0  0  0  0  0  0  0  0  0  0  0  0
    0.3784   -4.4923    4.2719 H   0  0  0  0  0  0  0  0  0  0  0  0
    1.0909   -5.3706    2.0671 H   0  0  0  0  0  0  0  0  0  0  0  0
    1.1587   -3.8679    0.0971 H   0  0  0  0  0  0  0  0  0  0  0  0
    0.5184   -1.4990    0.3201 H   0  0  0  0  0  0  0  0  0  0  0  0
  1  2  1  0
  2  3  1  0
  2  4  1  0
  4  5  2  0
  4  6  1  0
  6  7  1  0
  7  8  1  0
  8  9  2  0
  8 10  1  0
 10 11  1  0
 11 12  2  0
 12 13  1  0
 13 14  1  0
 14 15  2  0
 14 16  1  0
 16 17  1  0
 17 18  1  0
 18 19  1  0
 19 20  1  0
 20 21  1  0
 21 22  2  0
  6 23  1  0
 23 24  2  0
 24 25  1  0
 25 26  2  0
 26 27  1  0
 27 28  2  0
 15 11  1  0
 21 16  1  0
 23 28  1  0
  1 29  1  0
  1 30  1  0
  1 31  1  0
  3 32  1  0
  3 33  1  0
  3 34  1  0
  6 35  1  0
  7 36  1  0
 10 37  1  0
 10 38  1  0
 12 39  1  0
 17 40  1  0
 17 41  1  0
 18 42  1  0
 18 43  1  0
 19 44  1  0
 19 45  1  0
 20 46  1  0
 24 47  1  0
 25 48  1  0
 26 49  1  0
 27 50  1  0
 28 51  1  0
M  END
$$$$
