
     RDKit          3D

 41 43  0  0  0  0  0  0  0  0999 V2000
    1.5863   -4.9058    4.3234 C   0  0  0  0  0  0  0  0  0  0  0  0
    0.8470   -3.7041    4.5157 O   0  0  0  0  0  0  0  0  0  0  0  0
    0.8492   -2.6215    3.6237 C   0  0  0  0  0  0  0  0  0  0  0  0
    1.5925   -2.6291    2.4283 C   0  0  0  0  0  0  0  0  0  0  0  0
    1.5611   -1.5247    1.5714 C   0  0  0  0  0  0  0  0  0  0  0  0
    0.7907   -0.3959    1.8931 C   0  0  0  0  0  0  0  0  0  0  0  0
    0.0505   -0.3907    3.0867 C   0  0  0  0  0  0  0  0  0  0  0  0
    0.0811   -1.4960    3.9417 C   0  0  0  0  0  0  0  0  0  0  0  0
    0.7595    0.7662    0.9827 C   0  0  0  0  0  0  0  0  0  0  0  0
    0.0626    1.8969    1.2321 N   0  0  0  0  0  0  0  0  0  0  0  0
    0.3242    2.6598    0.1544 C   0  0  0  0  0  0  0  0  0  0  0  0
    1.1463    1.9732   -0.7101 C   0  0  0  0  0  0  0  0  0  0  0  0
    1.4008    0.8103   -0.1658 O   0  0  0  0  0  0  0  0  0  0  0  0
   -0.2889    4.0045   -0.0906 C   0  0  0  0  0  0  0  0  0  0  0  0
   -1.7275    3.8788   -0.6004 C   0  0  0  0  0  0  0  0  0  0  0  0
   -1.7615    3.2064   -1.8997 N   0  0  0  0  0  0  0  0  0  0  0  0
   -2.0454    1.8031   -2.0375 C   0  0  0  0  0  0  0  0  0  0  0  0
   -2.2919    1.1111   -1.0116 O   0  0  0  0  0  0  0  0  0  0  0  0
   -2.0255    1.1445   -3.3646 C   0  0  0  0  0  0  0  0  0  0  0  0
   -1.7760   -0.2354   -3.4657 C   0  0  0  0  0  0  0  0  0  0  0  0
   -1.7567   -0.8438   -4.6817 N   0  0  0  0  0  0  0  0  0  0  0  0
   -1.9808   -0.1538   -5.8303 C   0  0  0  0  0  0  0  0  0  0  0  0
   -2.2425    1.2157   -5.7817 C   0  0  0  0  0  0  0  0  0  0  0  0
   -2.4782    1.9073   -6.9238 F   0  0  0  0  0  0  0  0  0  0  0  0
   -2.2682    1.8657   -4.5464 C   0  0  0  0  0  0  0  0  0  0  0  0
    1.2582   -5.4112    3.3902 H   0  0  0  0  0  0  0  0  0  0  0  0
    1.4017   -5.5858    5.1802 H   0  0  0  0  0  0  0  0  0  0  0  0
    2.6730   -4.6818    4.2757 H   0  0  0  0  0  0  0  0  0  0  0  0
    2.1969   -3.4824    2.1522 H   0  0  0  0  0  0  0  0  0  0  0  0
    2.1408   -1.5538    0.6571 H   0  0  0  0  0  0  0  0  0  0  0  0
   -0.5524    0.4661    3.3599 H   0  0  0  0  0  0  0  0  0  0  0  0
   -0.4944   -1.4775    4.8584 H   0  0  0  0  0  0  0  0  0  0  0  0
    1.5176    2.3091   -1.6690 H   0  0  0  0  0  0  0  0  0  0  0  0
   -0.2907    4.5769    0.8614 H   0  0  0  0  0  0  0  0  0  0  0  0
    0.3219    4.5711   -0.8265 H   0  0  0  0  0  0  0  0  0  0  0  0
   -2.3551    3.3423    0.1441 H   0  0  0  0  0  0  0  0  0  0  0  0
   -2.1555    4.8977   -0.7154 H   0  0  0  0  0  0  0  0  0  0  0  0
   -1.3974    3.7404   -2.7198 H   0  0  0  0  0  0  0  0  0  0  0  0
   -1.5836   -0.8278   -2.5801 H   0  0  0  0  0  0  0  0  0  0  0  0
   -1.9594   -0.6704   -6.7805 H   0  0  0  0  0  0  0  0  0  0  0  0
   -2.5000    2.9219   -4.5196 H   0  0  0  0  0  0  0  0  0  0  0  0
  1  2  1  0
  2  3  1  0
  3  4  2  0
  4  5  1  0
  5  6  2  0
  6  7  1  0
  7  8  2  0
  6  9  1  0
  9 10  2  0
 10 11  1  0
 11 12  2  0
 12 13  1  0
 11 14  1  0
 14 15  1  0
 15 16  1  0
 16 17  1  0
 17 18  2  0
 17 19  1  0
 19 20  2  0
 20 21  1  0
 21 22  2  0
 22 23  1  0
 23 24  1  0
 23 25  2  0
  3  8  1  0
 13  9  1  0
 25 19  1  0
  1 26  1  0
  1 27  1  0
  1 28  1  0
  4 29  1  0
  5 30  1  0
  7 31  1  0
  8 32  1  0
 12 33  1  0
 14 34  1  0
 14 35  1  0
 15 36  1  0
 15 37  1  0
 16 38  1  0
 20 39  1  0
 22 40  1  0
 25 41  1  0
M  END
$$$$
