
     RDKit          3D

 52 55  0  0  0  0  0  0  0  0999 V2000
   -2.2007    0.2726    3.4788 C   0  0  0  0  0  0  0  0  0  0  0  0
   -3.3742   -0.0563    2.5494 C   0  0  0  0  0  0  0  0  0  0  0  0
   -3.1411   -1.3503    1.7644 C   0  0  0  0  0  0  0  0  0  0  0  0
   -3.7121    1.0966    1.6332 C   0  0  0  0  0  0  0  0  0  0  0  0
   -4.9186    1.7091    1.6489 N   0  0  0  0  0  0  0  0  0  0  0  0
   -4.9024    2.6613    0.7226 N   0  0  0  0  0  0  0  0  0  0  0  0
   -3.6840    2.6120    0.1573 C   0  0  0  0  0  0  0  0  0  0  0  0
   -3.2200    3.4190   -0.8759 C   0  0  0  0  0  0  0  0  0  0  0  0
   -1.9118    3.2000   -1.3332 C   0  0  0  0  0  0  0  0  0  0  0  0
   -1.1023    2.2018   -0.7469 C   0  0  0  0  0  0  0  0  0  0  0  0
   -1.6427    1.4045    0.2845 C   0  0  0  0  0  0  0  0  0  0  0  0
   -2.9152    1.6541    0.6952 N   0  0  0  0  0  0  0  0  0  0  0  0
    0.2300    1.9841   -1.2384 N   0  0  0  0  0  0  0  0  0  0  0  0
    1.2900    1.4628   -0.4223 C   0  0  0  0  0  0  0  0  0  0  0  0
    1.3085    1.7381    0.8085 O   0  0  0  0  0  0  0  0  0  0  0  0
    2.3574    0.6789   -1.0018 N   0  0  0  0  0  0  0  0  0  0  0  0
    3.6579    0.6008   -0.3174 C   0  0  0  0  0  0  0  0  0  0  0  0
    3.6231   -0.3432    0.8985 C   0  0  0  0  0  0  0  0  0  0  0  0
    3.5358   -1.8307    0.5274 C   0  0  0  0  0  0  0  0  0  0  0  0
    2.1364   -2.2446    0.1180 C   0  0  0  0  0  0  0  0  0  0  0  0
    1.2800   -2.7619    1.1080 C   0  0  0  0  0  0  0  0  0  0  0  0
   -0.0225   -3.1500    0.7943 C   0  0  0  0  0  0  0  0  0  0  0  0
   -0.4980   -3.0122   -0.5076 C   0  0  0  0  0  0  0  0  0  0  0  0
    0.3263   -2.4828   -1.5004 C   0  0  0  0  0  0  0  0  0  0  0  0
    1.6488   -2.1014   -1.2095 C   0  0  0  0  0  0  0  0  0  0  0  0
    2.4577   -1.4414   -2.3036 C   0  0  0  0  0  0  0  0  0  0  0  0
    2.2071    0.0704   -2.3360 C   0  0  0  0  0  0  0  0  0  0  0  0
   -2.0929   -0.5259    4.2436 H   0  0  0  0  0  0  0  0  0  0  0  0
   -1.2435    0.3498    2.9275 H   0  0  0  0  0  0  0  0  0  0  0  0
   -2.3893    1.2321    4.0063 H   0  0  0  0  0  0  0  0  0  0  0  0
   -4.2584   -0.2316    3.2020 H   0  0  0  0  0  0  0  0  0  0  0  0
   -4.0282   -1.5790    1.1360 H   0  0  0  0  0  0  0  0  0  0  0  0
   -2.9857   -2.1974    2.4660 H   0  0  0  0  0  0  0  0  0  0  0  0
   -2.2540   -1.2730    1.1078 H   0  0  0  0  0  0  0  0  0  0  0  0
   -3.8451    4.1862   -1.3144 H   0  0  0  0  0  0  0  0  0  0  0  0
   -1.5226    3.8118   -2.1372 H   0  0  0  0  0  0  0  0  0  0  0  0
   -1.0616    0.6051    0.7151 H   0  0  0  0  0  0  0  0  0  0  0  0
    0.4663    2.3166   -2.2004 H   0  0  0  0  0  0  0  0  0  0  0  0
    3.9505    1.6183    0.0223 H   0  0  0  0  0  0  0  0  0  0  0  0
    4.4535    0.2684   -1.0196 H   0  0  0  0  0  0  0  0  0  0  0  0
    4.5697   -0.1917    1.4617 H   0  0  0  0  0  0  0  0  0  0  0  0
    2.7990   -0.0784    1.5927 H   0  0  0  0  0  0  0  0  0  0  0  0
    4.2903   -2.0938   -0.2399 H   0  0  0  0  0  0  0  0  0  0  0  0
    3.8380   -2.4196    1.4214 H   0  0  0  0  0  0  0  0  0  0  0  0
    1.6220   -2.8652    2.1306 H   0  0  0  0  0  0  0  0  0  0  0  0
   -0.6682   -3.5496    1.5657 H   0  0  0  0  0  0  0  0  0  0  0  0
   -1.5136   -3.3018   -0.7451 H   0  0  0  0  0  0  0  0  0  0  0  0
   -0.0728   -2.3573   -2.4995 H   0  0  0  0  0  0  0  0  0  0  0  0
    2.1702   -1.8680   -3.2898 H   0  0  0  0  0  0  0  0  0  0  0  0
    3.5398   -1.6495   -2.2094 H   0  0  0  0  0  0  0  0  0  0  0  0
    2.9166    0.5504   -3.0437 H   0  0  0  0  0  0  0  0  0  0  0  0
    1.1841    0.2233   -2.7380 H   0  0  0  0  0  0  0  0  0  0  0  0
  1  2  1  0
  2  3  1  0
  2  4  1  0
  4  5  2  0
  5  6  1  0
  6  7  2  0
  7  8  1  0
  8  9  2  0
  9 10  1  0
 10 11  2  0
 11 12  1  0
 10 13  1  0
 13 14  1  0
 14 15  2  0
 14 16  1  0
 16 17  1  0
 17 18  1  0
 18 19  1  0
 19 20  1  0
 20 21  2  0
 21 22  1  0
 22 23  2  0
 23 24  1  0
 24 25  2  0
 25 26  1  0
 26 27  1  0
 12  4  1  0
 12  7  1  0
 27 16  1  0
 20 25  1  0
  1 28  1  0
  1 29  1  0
  1 30  1  0
  2 31  1  0
  3 32  1  0
  3 33  1  0
  3 34  1  0
  8 35  1  0
  9 36  1  0
 11 37  1  0
 13 38  1  0
 17 39  1  0
 17 40  1  0
 18 41  1  0
 18 42  1  0
 19 43  1  0
 19 44  1  0
 21 45  1  0
 22 46  1  0
 23 47  1  0
 24 48  1  0
 26 49  1  0
 26 50  1  0
 27 51  1  0
 27 52  1  0
M  END
$$$$
