
     RDKit          3D

 45 48  0  0  0  0  0  0  0  0999 V2000
   -3.2831    1.9573   -2.3739 C   0  0  0  0  0  0  0  0  0  0  0  0
   -3.4119    0.9296   -1.4360 C   0  0  0  0  0  0  0  0  0  0  0  0
   -3.0091   -0.3694   -1.7605 C   0  0  0  0  0  0  0  0  0  0  0  0
   -2.4547   -0.6446   -3.0240 C   0  0  0  0  0  0  0  0  0  0  0  0
   -2.0023   -1.9645   -3.3653 N   0  0  0  0  0  0  0  0  0  0  0  0
   -1.2160   -2.7756   -2.4813 C   0  0  0  0  0  0  0  0  0  0  0  0
   -0.7540   -2.2621   -1.2944 N   0  0  0  0  0  0  0  0  0  0  0  0
    0.0333   -2.9915   -0.4497 C   0  0  0  0  0  0  0  0  0  0  0  0
    0.5017   -2.4634    0.7588 O   0  0  0  0  0  0  0  0  0  0  0  0
    0.2110   -1.1394    1.2112 C   0  0  0  0  0  0  0  0  0  0  0  0
    1.3960   -0.1855    0.9410 C   0  0  0  0  0  0  0  0  0  0  0  0
    1.2038    1.1739    1.6501 C   0  0  0  0  0  0  0  0  0  0  0  0
    0.1459    2.0491    0.9611 C   0  0  0  0  0  0  0  0  0  0  0  0
    0.4806    2.2563   -0.5196 C   0  0  0  0  0  0  0  0  0  0  0  0
    0.6298    0.9151   -1.2431 C   0  0  0  0  0  0  0  0  0  0  0  0
    1.6832    0.0290   -0.5627 C   0  0  0  0  0  0  0  0  0  0  0  0
    0.3544   -4.2820   -0.8399 C   0  0  0  0  0  0  0  0  0  0  0  0
    1.0995   -5.2077   -0.2270 N   0  0  0  0  0  0  0  0  0  0  0  0
    1.0654   -6.2625   -1.0806 C   0  0  0  0  0  0  0  0  0  0  0  0
    0.3300   -6.0349   -2.2040 N   0  0  0  0  0  0  0  0  0  0  0  0
   -0.1009   -4.7770   -2.0126 C   0  0  0  0  0  0  0  0  0  0  0  0
   -0.8788   -4.0502   -2.8513 N   0  0  0  0  0  0  0  0  0  0  0  0
   -2.3569    0.3873   -3.9694 C   0  0  0  0  0  0  0  0  0  0  0  0
   -2.7622    1.6850   -3.6418 C   0  0  0  0  0  0  0  0  0  0  0  0
   -3.5929    2.9629   -2.1205 H   0  0  0  0  0  0  0  0  0  0  0  0
   -3.8250    1.1390   -0.4578 H   0  0  0  0  0  0  0  0  0  0  0  0
   -3.1313   -1.1573   -1.0287 H   0  0  0  0  0  0  0  0  0  0  0  0
   -2.1171   -2.2888   -4.3523 H   0  0  0  0  0  0  0  0  0  0  0  0
   -0.7351   -0.7619    0.7696 H   0  0  0  0  0  0  0  0  0  0  0  0
    0.0469   -1.1953    2.3083 H   0  0  0  0  0  0  0  0  0  0  0  0
    2.2979   -0.6621    1.3860 H   0  0  0  0  0  0  0  0  0  0  0  0
    0.9173    1.0168    2.7126 H   0  0  0  0  0  0  0  0  0  0  0  0
    2.1731    1.7200    1.6527 H   0  0  0  0  0  0  0  0  0  0  0  0
    0.1082    3.0383    1.4660 H   0  0  0  0  0  0  0  0  0  0  0  0
   -0.8593    1.5856    1.0588 H   0  0  0  0  0  0  0  0  0  0  0  0
   -0.3320    2.8427   -1.0005 H   0  0  0  0  0  0  0  0  0  0  0  0
    1.4244    2.8376   -0.6120 H   0  0  0  0  0  0  0  0  0  0  0  0
   -0.3483    0.3972   -1.2630 H   0  0  0  0  0  0  0  0  0  0  0  0
    0.9318    1.0996   -2.2964 H   0  0  0  0  0  0  0  0  0  0  0  0
    1.7517   -0.9439   -1.0916 H   0  0  0  0  0  0  0  0  0  0  0  0
    2.6770    0.5173   -0.6695 H   0  0  0  0  0  0  0  0  0  0  0  0
    1.5941   -5.1383    0.6899 H   0  0  0  0  0  0  0  0  0  0  0  0
    1.5761   -7.1968   -0.8882 H   0  0  0  0  0  0  0  0  0  0  0  0
   -1.9450    0.1891   -4.9509 H   0  0  0  0  0  0  0  0  0  0  0  0
   -2.6692    2.4804   -4.3699 H   0  0  0  0  0  0  0  0  0  0  0  0
  1  2  2  0
  2  3  1  0
  3  4  2  0
  4  5  1  0
  5  6  1  0
  6  7  2  0
  7  8  1  0
  8  9  1  0
  9 10  1  0
 10 11  1  0
 11 12  1  0
 12 13  1  0
 13 14  1  0
 14 15  1  0
 15 16  1  0
  8 17  2  0
 17 18  1  0
 18 19  1  0
 19 20  2  0
 20 21  1  0
 21 22  2  0
  4 23  1  0
 23 24  2  0
 24  1  1  0
 22  6  1  0
 16 11  1  0
 21 17  1  0
  1 25  1  0
  2 26  1  0
  3 27  1  0
  5 28  1  0
 10 29  1  0
 10 30  1  0
 11 31  1  0
 12 32  1  0
 12 33  1  0
 13 34  1  0
 13 35  1  0
 14 36  1  0
 14 37  1  0
 15 38  1  0
 15 39  1  0
 16 40  1  0
 16 41  1  0
 18 42  1  0
 19 43  1  0
 23 44  1  0
 24 45  1  0
M  END
$$$$
