
     RDKit          3D

 47 50  0  0  0  0  0  0  0  0999 V2000
    0.5532    1.6264   -0.8431 O   0  0  0  0  0  0  0  0  0  0  0  0
    1.0135    1.1903    0.2478 C   0  0  0  0  0  0  0  0  0  0  0  0
    0.8679    1.9657    1.4504 N   0  0  0  0  0  0  0  0  0  0  0  0
   -0.0448    3.0688    1.5870 C   0  0  0  0  0  0  0  0  0  0  0  0
    0.2893    4.1377    2.4306 C   0  0  0  0  0  0  0  0  0  0  0  0
   -0.5913    5.2086    2.5983 C   0  0  0  0  0  0  0  0  0  0  0  0
   -1.8192    5.2193    1.9334 C   0  0  0  0  0  0  0  0  0  0  0  0
   -2.1806    4.1526    1.0950 C   0  0  0  0  0  0  0  0  0  0  0  0
   -1.2936    3.0712    0.9395 C   0  0  0  0  0  0  0  0  0  0  0  0
   -3.5269    4.1529    0.4035 C   0  0  0  0  0  0  0  0  0  0  0  0
   -4.4678    3.0538    0.9620 C   0  0  0  0  0  0  0  0  0  0  0  0
   -4.7329    2.0569   -0.1784 C   0  0  0  0  0  0  0  0  0  0  0  0
   -4.0560    2.6743   -1.3353 C   0  0  0  0  0  0  0  0  0  0  0  0
   -4.0707    2.1927   -2.4983 O   0  0  0  0  0  0  0  0  0  0  0  0
   -3.3689    3.8612   -1.0097 N   0  0  0  0  0  0  0  0  0  0  0  0
    1.7347   -0.1006    0.2745 C   0  0  0  0  0  0  0  0  0  0  0  0
    1.9339   -0.8446   -0.8997 C   0  0  0  0  0  0  0  0  0  0  0  0
    2.6145   -2.0617   -0.8364 C   0  0  0  0  0  0  0  0  0  0  0  0
    3.0827   -2.5420    0.3966 C   0  0  0  0  0  0  0  0  0  0  0  0
    2.8794   -1.7641    1.5393 C   0  0  0  0  0  0  0  0  0  0  0  0
    2.2143   -0.5814    1.4551 N   0  0  0  0  0  0  0  0  0  0  0  0
    3.7872   -3.7495    0.5117 O   0  0  0  0  0  0  0  0  0  0  0  0
    3.6102   -4.8754   -0.3060 C   0  0  0  0  0  0  0  0  0  0  0  0
    4.7034   -5.7213   -0.5327 C   0  0  0  0  0  0  0  0  0  0  0  0
    4.5619   -6.8620   -1.3292 C   0  0  0  0  0  0  0  0  0  0  0  0
    3.3216   -7.1720   -1.8939 C   0  0  0  0  0  0  0  0  0  0  0  0
    2.2200   -6.3456   -1.6566 C   0  0  0  0  0  0  0  0  0  0  0  0
    2.3590   -5.2034   -0.8615 C   0  0  0  0  0  0  0  0  0  0  0  0
    1.5225    1.7766    2.2428 H   0  0  0  0  0  0  0  0  0  0  0  0
    1.2379    4.1434    2.9529 H   0  0  0  0  0  0  0  0  0  0  0  0
   -0.3218    6.0321    3.2470 H   0  0  0  0  0  0  0  0  0  0  0  0
   -2.4905    6.0562    2.0798 H   0  0  0  0  0  0  0  0  0  0  0  0
   -1.5916    2.2240    0.3359 H   0  0  0  0  0  0  0  0  0  0  0  0
   -4.0182    5.1461    0.5044 H   0  0  0  0  0  0  0  0  0  0  0  0
   -4.0303    2.5286    1.8400 H   0  0  0  0  0  0  0  0  0  0  0  0
   -5.4278    3.5138    1.2839 H   0  0  0  0  0  0  0  0  0  0  0  0
   -4.2770    1.0687    0.0447 H   0  0  0  0  0  0  0  0  0  0  0  0
   -5.8210    1.9492   -0.3755 H   0  0  0  0  0  0  0  0  0  0  0  0
   -2.8273    4.4443   -1.6863 H   0  0  0  0  0  0  0  0  0  0  0  0
    1.5748   -0.4875   -1.8568 H   0  0  0  0  0  0  0  0  0  0  0  0
    2.7913   -2.6153   -1.7490 H   0  0  0  0  0  0  0  0  0  0  0  0
    3.2444   -2.1042    2.4995 H   0  0  0  0  0  0  0  0  0  0  0  0
    5.6665   -5.4891   -0.0962 H   0  0  0  0  0  0  0  0  0  0  0  0
    5.4131   -7.5064   -1.5070 H   0  0  0  0  0  0  0  0  0  0  0  0
    3.2129   -8.0555   -2.5092 H   0  0  0  0  0  0  0  0  0  0  0  0
    1.2566   -6.5935   -2.0832 H   0  0  0  0  0  0  0  0  0  0  0  0
    1.4894   -4.5908   -0.6637 H   0  0  0  0  0  0  0  0  0  0  0  0
  1  2  2  0
  2  3  1  0
  3  4  1  0
  4  5  2  0
  5  6  1  0
  6  7  2  0
  7  8  1  0
  8  9  2  0
  8 10  1  0
 10 11  1  0
 11 12  1  0
 12 13  1  0
 13 14  2  0
 13 15  1  0
  2 16  1  0
 16 17  2  0
 17 18  1  0
 18 19  2  0
 19 20  1  0
 20 21  2  0
 19 22  1  0
 22 23  1  0
 23 24  2  0
 24 25  1  0
 25 26  2  0
 26 27  1  0
 27 28  2  0
  4  9  1  0
 15 10  1  0
 16 21  1  0
 23 28  1  0
  3 29  1  0
  5 30  1  0
  6 31  1  0
  7 32  1  0
  9 33  1  0
 10 34  1  0
 11 35  1  0
 11 36  1  0
 12 37  1  0
 12 38  1  0
 15 39  1  0
 17 40  1  0
 18 41  1  0
 20 42  1  0
 24 43  1  0
 25 44  1  0
 26 45  1  0
 27 46  1  0
 28 47  1  0
M  END
$$$$
