
     RDKit          3D

 38 40  0  0  0  0  0  0  0  0999 V2000
   -2.7648   -2.3015   -2.7106 O   0  0  0  0  0  0  0  0  0  0  0  0
   -2.0289   -3.1176   -2.0907 C   0  0  0  0  0  0  0  0  0  0  0  0
   -1.0591   -2.6257   -1.1499 N   0  0  0  0  0  0  0  0  0  0  0  0
   -0.9616   -1.2114   -0.7945 C   0  0  0  0  0  0  0  0  0  0  0  0
   -0.2397   -0.4318   -1.8958 C   0  0  0  0  0  0  0  0  0  0  0  0
   -0.1116    1.0122   -1.5188 C   0  0  0  0  0  0  0  0  0  0  0  0
   -1.0954    1.9583   -1.7932 C   0  0  0  0  0  0  0  0  0  0  0  0
   -0.5827    3.4237   -1.1516 S   0  0  0  0  0  0  0  0  0  0  0  0
    0.8602    2.7970   -0.5440 C   0  0  0  0  0  0  0  0  0  0  0  0
    0.9606    1.4769   -0.8211 N   0  0  0  0  0  0  0  0  0  0  0  0
    1.8902    3.5561    0.2016 C   0  0  0  0  0  0  0  0  0  0  0  0
    3.0505    2.9066    0.6628 C   0  0  0  0  0  0  0  0  0  0  0  0
    4.0274    3.6167    1.3676 C   0  0  0  0  0  0  0  0  0  0  0  0
    3.8581    4.9797    1.6196 C   0  0  0  0  0  0  0  0  0  0  0  0
    2.7113    5.6356    1.1672 C   0  0  0  0  0  0  0  0  0  0  0  0
    1.7309    4.9306    0.4618 C   0  0  0  0  0  0  0  0  0  0  0  0
   -2.1719   -4.5690   -2.3591 C   0  0  0  0  0  0  0  0  0  0  0  0
   -1.8207   -5.5289   -1.3907 C   0  0  0  0  0  0  0  0  0  0  0  0
   -1.9682   -6.8931   -1.6603 C   0  0  0  0  0  0  0  0  0  0  0  0
   -2.4720   -7.3153   -2.8927 C   0  0  0  0  0  0  0  0  0  0  0  0
   -2.6135   -8.6396   -3.1480 F   0  0  0  0  0  0  0  0  0  0  0  0
   -2.8356   -6.3722   -3.8576 C   0  0  0  0  0  0  0  0  0  0  0  0
   -3.3294   -6.7794   -5.0532 F   0  0  0  0  0  0  0  0  0  0  0  0
   -2.6909   -5.0066   -3.5922 C   0  0  0  0  0  0  0  0  0  0  0  0
   -0.3794   -3.2828   -0.7071 H   0  0  0  0  0  0  0  0  0  0  0  0
   -0.3891   -1.1158    0.1544 H   0  0  0  0  0  0  0  0  0  0  0  0
   -1.9784   -0.7948   -0.6223 H   0  0  0  0  0  0  0  0  0  0  0  0
   -0.7961   -0.5163   -2.8538 H   0  0  0  0  0  0  0  0  0  0  0  0
    0.7736   -0.8620   -2.0507 H   0  0  0  0  0  0  0  0  0  0  0  0
   -2.0250    1.7813   -2.3176 H   0  0  0  0  0  0  0  0  0  0  0  0
    3.2039    1.8505    0.4796 H   0  0  0  0  0  0  0  0  0  0  0  0
    4.9167    3.1092    1.7186 H   0  0  0  0  0  0  0  0  0  0  0  0
    4.6154    5.5276    2.1653 H   0  0  0  0  0  0  0  0  0  0  0  0
    2.5812    6.6922    1.3631 H   0  0  0  0  0  0  0  0  0  0  0  0
    0.8525    5.4638    0.1229 H   0  0  0  0  0  0  0  0  0  0  0  0
   -1.4575   -5.2333   -0.4159 H   0  0  0  0  0  0  0  0  0  0  0  0
   -1.6975   -7.6232   -0.9084 H   0  0  0  0  0  0  0  0  0  0  0  0
   -2.9740   -4.2917   -4.3551 H   0  0  0  0  0  0  0  0  0  0  0  0
  1  2  2  0
  2  3  1  0
  3  4  1  0
  4  5  1  0
  5  6  1  0
  6  7  2  0
  7  8  1  0
  8  9  1  0
  9 10  2  0
  9 11  1  0
 11 12  2  0
 12 13  1  0
 13 14  2  0
 14 15  1  0
 15 16  2  0
  2 17  1  0
 17 18  2  0
 18 19  1  0
 19 20  2  0
 20 21  1  0
 20 22  1  0
 22 23  1  0
 22 24  2  0
 10  6  1  0
 11 16  1  0
 24 17  1  0
  3 25  1  0
  4 26  1  0
  4 27  1  0
  5 28  1  0
  5 29  1  0
  7 30  1  0
 12 31  1  0
 13 32  1  0
 14 33  1  0
 15 34  1  0
 16 35  1  0
 18 36  1  0
 19 37  1  0
 24 38  1  0
M  END
$$$$
