
     RDKit          3D

 55 58  0  0  0  0  0  0  0  0999 V2000
   -5.2044    2.8260   -1.8691 C   0  0  0  0  0  0  0  0  0  0  0  0
   -5.3094    1.9389   -3.1040 C   0  0  0  0  0  0  0  0  0  0  0  0
   -4.2773    0.8576   -3.0644 C   0  0  0  0  0  0  0  0  0  0  0  0
   -4.4859   -0.3528   -2.5123 N   0  0  0  0  0  0  0  0  0  0  0  0
   -3.3502   -0.9696   -2.6295 O   0  0  0  0  0  0  0  0  0  0  0  0
   -2.4766   -0.1851   -3.2141 C   0  0  0  0  0  0  0  0  0  0  0  0
   -3.0151    1.0141   -3.5139 N   0  0  0  0  0  0  0  0  0  0  0  0
   -1.0781   -0.5643   -3.4985 C   0  0  0  0  0  0  0  0  0  0  0  0
   -0.2049    0.3424   -4.1128 C   0  0  0  0  0  0  0  0  0  0  0  0
    1.1179   -0.0167   -4.3703 C   0  0  0  0  0  0  0  0  0  0  0  0
    1.5994   -1.2856   -4.0105 C   0  0  0  0  0  0  0  0  0  0  0  0
    3.0411   -1.6254   -4.2792 C   0  0  0  0  0  0  0  0  0  0  0  0
    0.7265   -2.2143   -3.3934 C   0  0  0  0  0  0  0  0  0  0  0  0
   -0.6097   -1.8396   -3.1508 C   0  0  0  0  0  0  0  0  0  0  0  0
    1.1988   -3.5249   -3.0121 N   0  0  0  0  0  0  0  0  0  0  0  0
    0.6172   -4.3155   -1.9250 C   0  0  0  0  0  0  0  0  0  0  0  0
    0.6673   -3.5510   -0.6281 C   0  0  0  0  0  0  0  0  0  0  0  0
    1.9002   -3.1241   -0.1116 C   0  0  0  0  0  0  0  0  0  0  0  0
    1.9511   -2.3818    1.0713 C   0  0  0  0  0  0  0  0  0  0  0  0
    0.7691   -2.0503    1.7518 C   0  0  0  0  0  0  0  0  0  0  0  0
   -0.4608   -2.5073    1.2538 C   0  0  0  0  0  0  0  0  0  0  0  0
   -0.5124   -3.2479    0.0697 C   0  0  0  0  0  0  0  0  0  0  0  0
    0.8126   -1.2625    3.0000 C   0  0  0  0  0  0  0  0  0  0  0  0
    0.1043   -1.6292    3.9768 O   0  0  0  0  0  0  0  0  0  0  0  0
    1.6238   -0.0793    3.1172 N   0  0  0  0  0  0  0  0  0  0  0  0
    2.0530    0.7273    1.9847 C   0  0  0  0  0  0  0  0  0  0  0  0
    2.4676    2.0696    2.5721 C   0  0  0  0  0  0  0  0  0  0  0  0
    2.6840    1.8189    4.0613 C   0  0  0  0  0  0  0  0  0  0  0  0
    1.8687    0.5763    4.3905 C   0  0  0  0  0  0  0  0  0  0  0  0
   -4.2037    3.3071   -1.8238 H   0  0  0  0  0  0  0  0  0  0  0  0
   -5.3650    2.2256   -0.9479 H   0  0  0  0  0  0  0  0  0  0  0  0
   -5.9788    3.6205   -1.9155 H   0  0  0  0  0  0  0  0  0  0  0  0
   -6.3226    1.4846   -3.1484 H   0  0  0  0  0  0  0  0  0  0  0  0
   -5.1643    2.5562   -4.0165 H   0  0  0  0  0  0  0  0  0  0  0  0
   -0.5433    1.3319   -4.3940 H   0  0  0  0  0  0  0  0  0  0  0  0
    1.7709    0.7051   -4.8456 H   0  0  0  0  0  0  0  0  0  0  0  0
    3.1006   -2.4204   -5.0518 H   0  0  0  0  0  0  0  0  0  0  0  0
    3.5277   -1.9766   -3.3445 H   0  0  0  0  0  0  0  0  0  0  0  0
    3.6094   -0.7438   -4.6455 H   0  0  0  0  0  0  0  0  0  0  0  0
   -1.2944   -2.5424   -2.6979 H   0  0  0  0  0  0  0  0  0  0  0  0
    2.0512   -3.9177   -3.4698 H   0  0  0  0  0  0  0  0  0  0  0  0
   -0.4200   -4.6121   -2.1899 H   0  0  0  0  0  0  0  0  0  0  0  0
    1.1973   -5.2558   -1.8027 H   0  0  0  0  0  0  0  0  0  0  0  0
    2.8214   -3.3630   -0.6288 H   0  0  0  0  0  0  0  0  0  0  0  0
    2.9147   -2.0852    1.4646 H   0  0  0  0  0  0  0  0  0  0  0  0
   -1.3831   -2.2742    1.7719 H   0  0  0  0  0  0  0  0  0  0  0  0
   -1.4737   -3.5753   -0.3063 H   0  0  0  0  0  0  0  0  0  0  0  0
    2.9214    0.2501    1.4848 H   0  0  0  0  0  0  0  0  0  0  0  0
    1.2207    0.8594    1.2590 H   0  0  0  0  0  0  0  0  0  0  0  0
    1.6448    2.8059    2.4368 H   0  0  0  0  0  0  0  0  0  0  0  0
    3.3898    2.4586    2.0883 H   0  0  0  0  0  0  0  0  0  0  0  0
    2.3613    2.6908    4.6708 H   0  0  0  0  0  0  0  0  0  0  0  0
    3.7616    1.6181    4.2500 H   0  0  0  0  0  0  0  0  0  0  0  0
    2.4328   -0.0980    5.0705 H   0  0  0  0  0  0  0  0  0  0  0  0
    0.9012    0.8638    4.8573 H   0  0  0  0  0  0  0  0  0  0  0  0
  1  2  1  0
  2  3  1  0
  3  4  2  0
  4  5  1  0
  5  6  1  0
  6  7  2  0
  6  8  1  0
  8  9  2  0
  9 10  1  0
 10 11  2  0
 11 12  1  0
 11 13  1  0
 13 14  2  0
 13 15  1  0
 15 16  1  0
 16 17  1  0
 17 18  2  0
 18 19  1  0
 19 20  2  0
 20 21  1  0
 21 22  2  0
 20 23  1  0
 23 24  2  0
 23 25  1  0
 25 26  1  0
 26 27  1  0
 27 28  1  0
 28 29  1  0
  7  3  1  0
  8 14  1  0
 17 22  1  0
 29 25  1  0
  1 30  1  0
  1 31  1  0
  1 32  1  0
  2 33  1  0
  2 34  1  0
  9 35  1  0
 10 36  1  0
 12 37  1  0
 12 38  1  0
 12 39  1  0
 14 40  1  0
 15 41  1  0
 16 42  1  0
 16 43  1  0
 18 44  1  0
 19 45  1  0
 21 46  1  0
 22 47  1  0
 26 48  1  0
 26 49  1  0
 27 50  1  0
 27 51  1  0
 28 52  1  0
 28 53  1  0
 29 54  1  0
 29 55  1  0
M  END
$$$$
