
     RDKit          3D

 43 45  0  0  0  0  0  0  0  0999 V2000
    1.6775   -4.4191    2.6436 C   0  0  0  0  0  0  0  0  0  0  0  0
    2.0889   -3.2731    1.8303 N   0  0  0  0  0  0  0  0  0  0  0  0
    3.4594   -2.7501    1.9019 C   0  0  0  0  0  0  0  0  0  0  0  0
    3.4519   -1.2172    1.8929 C   0  0  0  0  0  0  0  0  0  0  0  0
    2.6455   -0.6824    0.7334 C   0  0  0  0  0  0  0  0  0  0  0  0
    2.9626    0.5634    0.1747 C   0  0  0  0  0  0  0  0  0  0  0  0
    2.1817    1.0955   -0.8537 C   0  0  0  0  0  0  0  0  0  0  0  0
    1.0712    0.3935   -1.3410 C   0  0  0  0  0  0  0  0  0  0  0  0
    0.7245   -0.8364   -0.7540 C   0  0  0  0  0  0  0  0  0  0  0  0
    1.5086   -1.3793    0.2779 C   0  0  0  0  0  0  0  0  0  0  0  0
    1.1649   -2.6733    0.9052 C   0  0  0  0  0  0  0  0  0  0  0  0
    0.0676   -3.2393    0.6447 O   0  0  0  0  0  0  0  0  0  0  0  0
    0.2705    0.9775   -2.3826 N   0  0  0  0  0  0  0  0  0  0  0  0
   -0.4242    0.2158   -3.3821 C   0  0  0  0  0  0  0  0  0  0  0  0
   -0.1363   -0.9955   -3.5811 O   0  0  0  0  0  0  0  0  0  0  0  0
   -1.5122    0.8516   -4.1919 C   0  0  0  0  0  0  0  0  0  0  0  0
   -2.8171    0.5493   -3.5944 N   0  0  0  0  0  0  0  0  0  0  0  0
   -3.6818   -0.4705   -4.2012 C   0  0  0  0  0  0  0  0  0  0  0  0
   -4.4743   -1.2199   -3.1269 C   0  0  0  0  0  0  0  0  0  0  0  0
   -5.3028   -0.2363   -2.2957 C   0  0  0  0  0  0  0  0  0  0  0  0
   -4.4587    0.8227   -1.7480 N   0  0  0  0  0  0  0  0  0  0  0  0
   -3.2745    1.2568   -2.4258 C   0  0  0  0  0  0  0  0  0  0  0  0
   -2.6263    2.2402   -1.9765 O   0  0  0  0  0  0  0  0  0  0  0  0
    2.5073   -4.7797    3.2870 H   0  0  0  0  0  0  0  0  0  0  0  0
    0.8273   -4.1278    3.2954 H   0  0  0  0  0  0  0  0  0  0  0  0
    1.3630   -5.2544    1.9831 H   0  0  0  0  0  0  0  0  0  0  0  0
    3.9757   -3.1027    2.8209 H   0  0  0  0  0  0  0  0  0  0  0  0
    4.0322   -3.1180    1.0228 H   0  0  0  0  0  0  0  0  0  0  0  0
    4.5017   -0.8550    1.8355 H   0  0  0  0  0  0  0  0  0  0  0  0
    3.0063   -0.8455    2.8407 H   0  0  0  0  0  0  0  0  0  0  0  0
    3.8127    1.1265    0.5393 H   0  0  0  0  0  0  0  0  0  0  0  0
    2.4445    2.0573   -1.2758 H   0  0  0  0  0  0  0  0  0  0  0  0
   -0.1649   -1.3586   -1.0817 H   0  0  0  0  0  0  0  0  0  0  0  0
    0.2437    2.0198   -2.4557 H   0  0  0  0  0  0  0  0  0  0  0  0
   -1.3654    1.9512   -4.2552 H   0  0  0  0  0  0  0  0  0  0  0  0
   -1.4618    0.4652   -5.2334 H   0  0  0  0  0  0  0  0  0  0  0  0
   -3.0746   -1.2056   -4.7734 H   0  0  0  0  0  0  0  0  0  0  0  0
   -4.3849    0.0218   -4.9074 H   0  0  0  0  0  0  0  0  0  0  0  0
   -5.1494   -1.9589   -3.6092 H   0  0  0  0  0  0  0  0  0  0  0  0
   -3.7709   -1.7685   -2.4630 H   0  0  0  0  0  0  0  0  0  0  0  0
   -6.0928    0.2195   -2.9304 H   0  0  0  0  0  0  0  0  0  0  0  0
   -5.7962   -0.7829   -1.4637 H   0  0  0  0  0  0  0  0  0  0  0  0
   -4.7932    1.3528   -0.9121 H   0  0  0  0  0  0  0  0  0  0  0  0
  1  2  1  0
  2  3  1  0
  3  4  1  0
  4  5  1  0
  5  6  2  0
  6  7  1  0
  7  8  2  0
  8  9  1  0
  9 10  2  0
 10 11  1  0
 11 12  2  0
  8 13  1  0
 13 14  1  0
 14 15  2  0
 14 16  1  0
 16 17  1  0
 17 18  1  0
 18 19  1  0
 19 20  1  0
 20 21  1  0
 21 22  1  0
 22 23  2  0
 11  2  1  0
  5 10  1  0
 22 17  1  0
  1 24  1  0
  1 25  1  0
  1 26  1  0
  3 27  1  0
  3 28  1  0
  4 29  1  0
  4 30  1  0
  6 31  1  0
  7 32  1  0
  9 33  1  0
 13 34  1  0
 16 35  1  0
 16 36  1  0
 18 37  1  0
 18 38  1  0
 19 39  1  0
 19 40  1  0
 20 41  1  0
 20 42  1  0
 21 43  1  0
M  END
$$$$
