
     RDKit          3D

 50 53  0  0  0  0  0  0  0  0999 V2000
   -1.4768   -2.5527   -1.0762 O   0  0  0  0  0  0  0  0  0  0  0  0
   -0.5898   -1.6768   -1.2670 C   0  0  0  0  0  0  0  0  0  0  0  0
   -0.7990   -0.6505   -2.2504 N   0  0  0  0  0  0  0  0  0  0  0  0
   -2.0193   -0.5666   -3.0511 C   0  0  0  0  0  0  0  0  0  0  0  0
   -3.1816    0.0056   -2.2107 C   0  0  0  0  0  0  0  0  0  0  0  0
   -2.9117    1.3671   -1.7412 N   0  0  0  0  0  0  0  0  0  0  0  0
   -4.2234    1.9826   -1.5126 C   0  0  0  0  0  0  0  0  0  0  0  0
   -5.2981    1.0714   -2.1030 C   0  0  0  0  0  0  0  0  0  0  0  0
   -4.5393    0.0387   -2.9202 C   0  0  0  0  0  0  0  0  0  0  0  0
   -4.4403    0.5036   -4.3919 C   0  0  0  0  0  0  0  0  0  0  0  0
   -5.6579    0.1830   -5.2474 C   0  0  0  0  0  0  0  0  0  0  0  0
   -4.3716   -0.6043   -5.4338 C   0  0  0  0  0  0  0  0  0  0  0  0
    0.6691   -1.7263   -0.4880 C   0  0  0  0  0  0  0  0  0  0  0  0
    1.8866   -1.4515   -1.1300 C   0  0  0  0  0  0  0  0  0  0  0  0
    3.0923   -1.5059   -0.4284 C   0  0  0  0  0  0  0  0  0  0  0  0
    3.1146   -1.8341    0.9387 C   0  0  0  0  0  0  0  0  0  0  0  0
    1.8943   -2.1102    1.5820 C   0  0  0  0  0  0  0  0  0  0  0  0
    0.6816   -2.0582    0.8841 C   0  0  0  0  0  0  0  0  0  0  0  0
   -0.8008   -2.3602    1.7876 Cl  0  0  0  0  0  0  0  0  0  0  0  0
    4.3652   -1.8934    1.6626 N   0  0  0  0  0  0  0  0  0  0  0  0
    5.6833   -1.7778    1.0418 C   0  0  0  0  0  0  0  0  0  0  0  0
    6.7656   -2.0528    2.1092 C   0  0  0  0  0  0  0  0  0  0  0  0
    6.2317   -1.6983    3.5003 C   0  0  0  0  0  0  0  0  0  0  0  0
    4.4916   -1.9246    3.3754 S   0  0  0  0  0  0  0  0  0  0  0  0
    4.0653   -3.2533    3.9336 O   0  0  0  0  0  0  0  0  0  0  0  0
    3.7380   -0.7891    4.0091 O   0  0  0  0  0  0  0  0  0  0  0  0
   -0.0627    0.0746   -2.4038 H   0  0  0  0  0  0  0  0  0  0  0  0
   -2.2847   -1.5760   -3.4335 H   0  0  0  0  0  0  0  0  0  0  0  0
   -1.8240    0.0845   -3.9304 H   0  0  0  0  0  0  0  0  0  0  0  0
   -3.2964   -0.6423   -1.3121 H   0  0  0  0  0  0  0  0  0  0  0  0
   -2.4372    1.9047   -2.5055 H   0  0  0  0  0  0  0  0  0  0  0  0
   -4.2720    2.9885   -1.9881 H   0  0  0  0  0  0  0  0  0  0  0  0
   -4.3848    2.1078   -0.4203 H   0  0  0  0  0  0  0  0  0  0  0  0
   -6.0343    1.6466   -2.7074 H   0  0  0  0  0  0  0  0  0  0  0  0
   -5.8450    0.5615   -1.2787 H   0  0  0  0  0  0  0  0  0  0  0  0
   -5.0370   -0.9551   -2.8414 H   0  0  0  0  0  0  0  0  0  0  0  0
   -3.9250    1.4533   -4.6531 H   0  0  0  0  0  0  0  0  0  0  0  0
   -5.8577    0.9163   -6.0570 H   0  0  0  0  0  0  0  0  0  0  0  0
   -6.4696   -0.3898   -4.7495 H   0  0  0  0  0  0  0  0  0  0  0  0
   -3.8057   -0.3356   -6.3505 H   0  0  0  0  0  0  0  0  0  0  0  0
   -4.4181   -1.6449   -5.0472 H   0  0  0  0  0  0  0  0  0  0  0  0
    1.9113   -1.2142   -2.1863 H   0  0  0  0  0  0  0  0  0  0  0  0
    4.0061   -1.2871   -0.9634 H   0  0  0  0  0  0  0  0  0  0  0  0
    1.8723   -2.3699    2.6309 H   0  0  0  0  0  0  0  0  0  0  0  0
    5.8099   -0.7495    0.6397 H   0  0  0  0  0  0  0  0  0  0  0  0
    5.7833   -2.5128    0.2141 H   0  0  0  0  0  0  0  0  0  0  0  0
    7.6914   -1.4799    1.8868 H   0  0  0  0  0  0  0  0  0  0  0  0
    7.0157   -3.1365    2.0916 H   0  0  0  0  0  0  0  0  0  0  0  0
    6.4496   -0.6341    3.7324 H   0  0  0  0  0  0  0  0  0  0  0  0
    6.6660   -2.3563    4.2826 H   0  0  0  0  0  0  0  0  0  0  0  0
  1  2  2  0
  2  3  1  0
  3  4  1  0
  4  5  1  0
  5  6  1  0
  6  7  1  0
  7  8  1  0
  8  9  1  0
  9 10  1  0
 10 11  1  0
 11 12  1  0
  2 13  1  0
 13 14  2  0
 14 15  1  0
 15 16  2  0
 16 17  1  0
 17 18  2  0
 18 19  1  0
 16 20  1  0
 20 21  1  0
 21 22  1  0
 22 23  1  0
 23 24  1  0
 24 25  2  0
 24 26  2  0
  9  5  1  0
 12 10  1  0
 13 18  1  0
 24 20  1  0
  3 27  1  0
  4 28  1  0
  4 29  1  0
  5 30  1  0
  6 31  1  0
  7 32  1  0
  7 33  1  0
  8 34  1  0
  8 35  1  0
  9 36  1  0
 10 37  1  0
 11 38  1  0
 11 39  1  0
 12 40  1  0
 12 41  1  0
 14 42  1  0
 15 43  1  0
 17 44  1  0
 21 45  1  0
 21 46  1  0
 22 47  1  0
 22 48  1  0
 23 49  1  0
 23 50  1  0
M  END
$$$$
