
     RDKit          3D

 49 51  0  0  0  0  0  0  0  0999 V2000
   -5.3781    0.3958    5.3658 C   0  0  0  0  0  0  0  0  0  0  0  0
   -4.8350    1.1540    4.1989 C   0  0  0  0  0  0  0  0  0  0  0  0
   -4.7868    2.4127    4.2486 O   0  0  0  0  0  0  0  0  0  0  0  0
   -4.4633    0.4529    3.0022 N   0  0  0  0  0  0  0  0  0  0  0  0
   -3.7623    1.0532    1.8992 C   0  0  0  0  0  0  0  0  0  0  0  0
   -2.7945    2.0536    2.1006 C   0  0  0  0  0  0  0  0  0  0  0  0
   -2.1091    2.6027    1.0130 C   0  0  0  0  0  0  0  0  0  0  0  0
   -2.3717    2.1551   -0.2903 C   0  0  0  0  0  0  0  0  0  0  0  0
   -3.3176    1.1382   -0.4901 C   0  0  0  0  0  0  0  0  0  0  0  0
   -4.0023    0.5887    0.5976 C   0  0  0  0  0  0  0  0  0  0  0  0
   -1.6075    2.7309   -1.4516 C   0  0  0  0  0  0  0  0  0  0  0  0
   -0.2122    2.3011   -1.4003 N   0  0  0  0  0  0  0  0  0  0  0  0
    0.1876    0.9519   -1.6821 C   0  0  0  0  0  0  0  0  0  0  0  0
   -0.6691    0.1040   -2.0557 O   0  0  0  0  0  0  0  0  0  0  0  0
    1.6198    0.5298   -1.4753 C   0  0  0  0  0  0  0  0  0  0  0  0
    2.1327   -0.2969   -2.6675 C   0  0  0  0  0  0  0  0  0  0  0  0
    3.5831   -0.7297   -2.4390 C   0  0  0  0  0  0  0  0  0  0  0  0
    3.7190   -1.4057   -1.1410 N   0  0  0  0  0  0  0  0  0  0  0  0
    3.1953   -0.7265    0.0540 C   0  0  0  0  0  0  0  0  0  0  0  0
    1.7481   -0.2767   -0.1735 C   0  0  0  0  0  0  0  0  0  0  0  0
    4.5899   -2.5493   -1.0248 C   0  0  0  0  0  0  0  0  0  0  0  0
    5.4581   -2.7061    0.0699 C   0  0  0  0  0  0  0  0  0  0  0  0
    6.2638   -3.7986    0.1361 N   0  0  0  0  0  0  0  0  0  0  0  0
    6.2488   -4.7463   -0.8367 C   0  0  0  0  0  0  0  0  0  0  0  0
    5.3957   -4.5929   -1.9294 C   0  0  0  0  0  0  0  0  0  0  0  0
    4.5901   -3.5015   -1.9990 N   0  0  0  0  0  0  0  0  0  0  0  0
   -6.4504    0.1677    5.1917 H   0  0  0  0  0  0  0  0  0  0  0  0
   -4.8180   -0.5544    5.4928 H   0  0  0  0  0  0  0  0  0  0  0  0
   -5.2783    0.9944    6.2963 H   0  0  0  0  0  0  0  0  0  0  0  0
   -4.7945   -0.5330    2.8959 H   0  0  0  0  0  0  0  0  0  0  0  0
   -2.5459    2.3922    3.0974 H   0  0  0  0  0  0  0  0  0  0  0  0
   -1.3635    3.3689    1.1869 H   0  0  0  0  0  0  0  0  0  0  0  0
   -3.5224    0.7661   -1.4862 H   0  0  0  0  0  0  0  0  0  0  0  0
   -4.7281   -0.1963    0.4257 H   0  0  0  0  0  0  0  0  0  0  0  0
   -1.6526    3.8403   -1.3962 H   0  0  0  0  0  0  0  0  0  0  0  0
   -2.0567    2.4341   -2.4245 H   0  0  0  0  0  0  0  0  0  0  0  0
    0.5117    3.0026   -1.1253 H   0  0  0  0  0  0  0  0  0  0  0  0
    2.2520    1.4422   -1.3897 H   0  0  0  0  0  0  0  0  0  0  0  0
    2.0759    0.3095   -3.5978 H   0  0  0  0  0  0  0  0  0  0  0  0
    1.5053   -1.2055   -2.8053 H   0  0  0  0  0  0  0  0  0  0  0  0
    3.8898   -1.3950   -3.2748 H   0  0  0  0  0  0  0  0  0  0  0  0
    4.2469    0.1621   -2.4565 H   0  0  0  0  0  0  0  0  0  0  0  0
    3.2048   -1.4093    0.9312 H   0  0  0  0  0  0  0  0  0  0  0  0
    3.8331    0.1541    0.2862 H   0  0  0  0  0  0  0  0  0  0  0  0
    1.4222    0.3460    0.6886 H   0  0  0  0  0  0  0  0  0  0  0  0
    1.0927   -1.1753   -0.2179 H   0  0  0  0  0  0  0  0  0  0  0  0
    5.5125   -1.9623    0.8532 H   0  0  0  0  0  0  0  0  0  0  0  0
    6.8976   -5.6089   -0.7639 H   0  0  0  0  0  0  0  0  0  0  0  0
    5.3730   -5.3350   -2.7162 H   0  0  0  0  0  0  0  0  0  0  0  0
  1  2  1  0
  2  3  2  0
  2  4  1  0
  4  5  1  0
  5  6  2  0
  6  7  1  0
  7  8  2  0
  8  9  1  0
  9 10  2  0
  8 11  1  0
 11 12  1  0
 12 13  1  0
 13 14  2  0
 13 15  1  0
 15 16  1  0
 16 17  1  0
 17 18  1  0
 18 19  1  0
 19 20  1  0
 18 21  1  0
 21 22  2  0
 22 23  1  0
 23 24  2  0
 24 25  1  0
 25 26  2  0
  5 10  1  0
 20 15  1  0
 26 21  1  0
  1 27  1  0
  1 28  1  0
  1 29  1  0
  4 30  1  0
  6 31  1  0
  7 32  1  0
  9 33  1  0
 10 34  1  0
 11 35  1  0
 11 36  1  0
 12 37  1  0
 15 38  1  0
 16 39  1  0
 16 40  1  0
 17 41  1  0
 17 42  1  0
 19 43  1  0
 19 44  1  0
 20 45  1  0
 20 46  1  0
 22 47  1  0
 24 48  1  0
 25 49  1  0
M  END
$$$$
