
     RDKit          3D

 39 42  0  0  0  0  0  0  0  0999 V2000
   -1.7641   -3.8085    1.4413 C   0  0  0  0  0  0  0  0  0  0  0  0
   -1.1567   -3.3044    0.1288 C   0  0  1  0  0  0  0  0  0  0  0  0
    0.2337   -3.7854    0.0024 N   0  0  0  0  0  0  0  0  0  0  0  0
    0.9308   -3.2668   -1.1890 C   0  0  0  0  0  0  0  0  0  0  0  0
    1.0719   -1.7690   -1.1625 C   0  0  0  0  0  0  0  0  0  0  0  0
    0.2497   -1.0068   -1.9424 N   0  0  0  0  0  0  0  0  0  0  0  0
    0.3532    0.3406   -1.8879 C   0  0  0  0  0  0  0  0  0  0  0  0
   -0.5689    1.4666   -2.7591 S   0  0  0  0  0  0  0  0  0  0  0  0
    0.2420    2.7671   -2.0452 C   0  0  0  0  0  0  0  0  0  0  0  0
    0.1354    4.2299   -2.1601 C   0  0  0  0  0  0  0  0  0  0  0  0
    1.2213    4.7232   -1.1685 C   0  0  0  0  0  0  0  0  0  0  0  0
    1.8912    3.4786   -0.5262 C   0  0  0  0  0  0  0  0  0  0  0  0
    1.1828    2.3543   -1.1689 C   0  0  0  0  0  0  0  0  0  0  0  0
    1.2671    0.9685   -1.0588 C   0  0  0  0  0  0  0  0  0  0  0  0
    2.1008    0.1877   -0.2617 C   0  0  0  0  0  0  0  0  0  0  0  0
    2.9450    0.7182    0.5093 O   0  0  0  0  0  0  0  0  0  0  0  0
    1.9845   -1.1718   -0.3287 N   0  0  0  0  0  0  0  0  0  0  0  0
   -2.0003   -3.7769   -1.0262 C   0  0  0  0  0  0  0  0  0  0  0  0
   -2.7258   -2.9606   -1.8847 C   0  0  0  0  0  0  0  0  0  0  0  0
   -3.4012   -3.6758   -2.8802 C   0  0  0  0  0  0  0  0  0  0  0  0
   -4.4762   -2.8370   -4.2135 Br  0  0  0  0  0  0  0  0  0  0  0  0
   -3.2144   -5.0504   -2.8130 C   0  0  0  0  0  0  0  0  0  0  0  0
   -2.2023   -5.3777   -1.5103 S   0  0  0  0  0  0  0  0  0  0  0  0
   -1.7303   -4.9183    1.4880 H   0  0  0  0  0  0  0  0  0  0  0  0
   -1.1973   -3.3994    2.3045 H   0  0  0  0  0  0  0  0  0  0  0  0
   -2.8201   -3.4737    1.5304 H   0  0  0  0  0  0  0  0  0  0  0  0
   -1.1744   -2.1923    0.1700 H   0  0  0  0  0  0  0  0  0  0  0  0
    0.7741   -3.4864    0.8486 H   0  0  0  0  0  0  0  0  0  0  0  0
    1.9449   -3.7184   -1.2329 H   0  0  0  0  0  0  0  0  0  0  0  0
    0.4091   -3.5880   -2.1161 H   0  0  0  0  0  0  0  0  0  0  0  0
    0.3602    4.5523   -3.1991 H   0  0  0  0  0  0  0  0  0  0  0  0
   -0.8767    4.5674   -1.8510 H   0  0  0  0  0  0  0  0  0  0  0  0
    0.7587    5.3566   -0.3805 H   0  0  0  0  0  0  0  0  0  0  0  0
    1.9819    5.3292   -1.7075 H   0  0  0  0  0  0  0  0  0  0  0  0
    2.9756    3.4380   -0.7646 H   0  0  0  0  0  0  0  0  0  0  0  0
    1.7290    3.4582    0.5728 H   0  0  0  0  0  0  0  0  0  0  0  0
    2.6023   -1.7658    0.2701 H   0  0  0  0  0  0  0  0  0  0  0  0
   -2.7611   -1.8822   -1.7986 H   0  0  0  0  0  0  0  0  0  0  0  0
   -3.6431   -5.7822   -3.4841 H   0  0  0  0  0  0  0  0  0  0  0  0
  1  2  1  0
  2  3  1  0
  3  4  1  0
  4  5  1  0
  5  6  2  0
  6  7  1  0
  7  8  1  0
  8  9  1  0
  9 10  1  0
 10 11  1  0
 11 12  1  0
 12 13  1  0
 13 14  1  0
 14 15  1  0
 15 16  2  0
 15 17  1  0
  2 18  1  0
 18 19  2  0
 19 20  1  0
 20 21  1  0
 20 22  2  0
 22 23  1  0
 17  5  1  0
  7 14  2  0
  9 13  2  0
 23 18  1  0
  1 24  1  0
  1 25  1  0
  1 26  1  0
  2 27  1  1
  3 28  1  0
  4 29  1  0
  4 30  1  0
 10 31  1  0
 10 32  1  0
 11 33  1  0
 11 34  1  0
 12 35  1  0
 12 36  1  0
 17 37  1  0
 19 38  1  0
 22 39  1  0
M  END
$$$$
