
     RDKit          3D

 48 51  0  0  0  0  0  0  0  0999 V2000
   -2.0221   -0.3188    4.1642 C   0  0  0  0  0  0  0  0  0  0  0  0
   -2.7439   -0.8489    2.9082 C   0  0  0  0  0  0  0  0  0  0  0  0
   -4.2592   -0.5987    3.0321 C   0  0  0  0  0  0  0  0  0  0  0  0
   -2.5025   -2.2288    2.7640 O   0  0  0  0  0  0  0  0  0  0  0  0
   -2.2113   -0.1309    1.6536 C   0  0  0  0  0  0  0  0  0  0  0  0
   -0.8368   -0.3952    1.4981 O   0  0  0  0  0  0  0  0  0  0  0  0
   -0.4293    0.2852    0.3946 N   0  0  0  0  0  0  0  0  0  0  0  0
   -0.2852   -0.3835   -0.8630 C   0  0  0  0  0  0  0  0  0  0  0  0
   -0.7873   -1.5283   -1.0238 O   0  0  0  0  0  0  0  0  0  0  0  0
    0.4056    0.2732   -1.9873 C   0  0  0  0  0  0  0  0  0  0  0  0
   -0.2003    0.3030   -3.2622 C   0  0  0  0  0  0  0  0  0  0  0  0
    0.3921    1.0441   -4.3277 C   0  0  0  0  0  0  0  0  0  0  0  0
    1.5562    1.7253   -4.1034 N   0  0  0  0  0  0  0  0  0  0  0  0
    2.1428    1.6695   -2.8852 C   0  0  0  0  0  0  0  0  0  0  0  0
    3.2545    2.2560   -2.5263 O   0  0  0  0  0  0  0  0  0  0  0  0
    3.5345    1.9546   -1.2873 N   0  0  0  0  0  0  0  0  0  0  0  0
    2.5552    1.1350   -0.8316 C   0  0  0  0  0  0  0  0  0  0  0  0
    2.6067    0.4884    0.4911 C   0  0  0  0  0  0  0  0  0  0  0  0
    2.8554    1.2598    1.6368 C   0  0  0  0  0  0  0  0  0  0  0  0
    2.8993    0.6543    2.8967 C   0  0  0  0  0  0  0  0  0  0  0  0
    2.7136   -0.7257    3.0177 C   0  0  0  0  0  0  0  0  0  0  0  0
    2.4951   -1.5041    1.8778 C   0  0  0  0  0  0  0  0  0  0  0  0
    2.4504   -0.9022    0.6166 C   0  0  0  0  0  0  0  0  0  0  0  0
    1.6247    0.9529   -1.8486 C   0  0  0  0  0  0  0  0  0  0  0  0
   -0.2053    1.1419   -5.7167 C   0  0  0  0  0  0  0  0  0  0  0  0
   -1.7235    1.1803   -5.8224 C   0  0  0  0  0  0  0  0  0  0  0  0
   -0.9607   -0.0701   -6.2443 C   0  0  0  0  0  0  0  0  0  0  0  0
   -0.9348   -0.5417    4.1122 H   0  0  0  0  0  0  0  0  0  0  0  0
   -2.1559    0.7804    4.2593 H   0  0  0  0  0  0  0  0  0  0  0  0
   -2.4277   -0.8012    5.0793 H   0  0  0  0  0  0  0  0  0  0  0  0
   -4.4729    0.4895    3.1071 H   0  0  0  0  0  0  0  0  0  0  0  0
   -4.6647   -1.0984    3.9379 H   0  0  0  0  0  0  0  0  0  0  0  0
   -4.7912   -1.0053    2.1453 H   0  0  0  0  0  0  0  0  0  0  0  0
   -2.8450   -2.6866    3.5764 H   0  0  0  0  0  0  0  0  0  0  0  0
   -2.3839    0.9665    1.7530 H   0  0  0  0  0  0  0  0  0  0  0  0
   -2.7700   -0.4984    0.7618 H   0  0  0  0  0  0  0  0  0  0  0  0
   -0.1186    1.2781    0.4955 H   0  0  0  0  0  0  0  0  0  0  0  0
   -1.1383   -0.2166   -3.4005 H   0  0  0  0  0  0  0  0  0  0  0  0
    2.9957    2.3309    1.5568 H   0  0  0  0  0  0  0  0  0  0  0  0
    3.0761    1.2551    3.7793 H   0  0  0  0  0  0  0  0  0  0  0  0
    2.7460   -1.1925    3.9936 H   0  0  0  0  0  0  0  0  0  0  0  0
    2.3620   -2.5741    1.9712 H   0  0  0  0  0  0  0  0  0  0  0  0
    2.2935   -1.5188   -0.2598 H   0  0  0  0  0  0  0  0  0  0  0  0
    0.3310    1.7310   -6.4916 H   0  0  0  0  0  0  0  0  0  0  0  0
   -2.2999    1.0740   -4.8809 H   0  0  0  0  0  0  0  0  0  0  0  0
   -2.1079    1.7770   -6.6765 H   0  0  0  0  0  0  0  0  0  0  0  0
   -1.0754   -0.9347   -5.5593 H   0  0  0  0  0  0  0  0  0  0  0  0
   -0.8992   -0.2040   -7.3449 H   0  0  0  0  0  0  0  0  0  0  0  0
  1  2  1  0
  2  3  1  0
  2  4  1  0
  2  5  1  0
  5  6  1  0
  6  7  1  0
  7  8  1  0
  8  9  2  0
  8 10  1  0
 10 11  2  0
 11 12  1  0
 12 13  2  0
 13 14  1  0
 14 15  1  0
 15 16  1  0
 16 17  2  0
 17 18  1  0
 18 19  2  0
 19 20  1  0
 20 21  2  0
 21 22  1  0
 22 23  2  0
 17 24  1  0
 12 25  1  0
 25 26  1  0
 26 27  1  0
 10 24  1  0
 24 14  2  0
 18 23  1  0
 27 25  1  0
  1 28  1  0
  1 29  1  0
  1 30  1  0
  3 31  1  0
  3 32  1  0
  3 33  1  0
  4 34  1  0
  5 35  1  0
  5 36  1  0
  7 37  1  0
 11 38  1  0
 19 39  1  0
 20 40  1  0
 21 41  1  0
 22 42  1  0
 23 43  1  0
 25 44  1  0
 26 45  1  0
 26 46  1  0
 27 47  1  0
 27 48  1  0
M  END
$$$$
