
     RDKit          3D

 44 47  0  0  0  0  0  0  0  0999 V2000
   -1.4012   -3.8574   -2.4860 O   0  0  0  0  0  0  0  0  0  0  0  0
   -0.6027   -3.3267   -1.6691 C   0  0  0  0  0  0  0  0  0  0  0  0
   -0.9154   -3.0924   -0.2448 C   0  0  0  0  0  0  0  0  0  0  0  0
    0.2954   -2.2727    0.2604 C   0  0  0  0  0  0  0  0  0  0  0  0
   -0.1193   -0.9034    0.5927 N   0  0  0  0  0  0  0  0  0  0  0  0
    0.5203   -0.1251    1.6123 C   0  0  0  0  0  0  0  0  0  0  0  0
    1.5189   -0.6560    2.3697 N   0  0  0  0  0  0  0  0  0  0  0  0
    2.1379    0.0813    3.3272 C   0  0  0  0  0  0  0  0  0  0  0  0
    1.7518    1.4027    3.5459 C   0  0  0  0  0  0  0  0  0  0  0  0
    0.7218    1.9353    2.7700 C   0  0  0  0  0  0  0  0  0  0  0  0
    0.1359    1.1632    1.8140 N   0  0  0  0  0  0  0  0  0  0  0  0
    0.3377    3.2687    2.9624 O   0  0  0  0  0  0  0  0  0  0  0  0
   -0.8551    3.8432    2.4988 C   0  0  0  0  0  0  0  0  0  0  0  0
   -0.8604    5.2070    2.1789 C   0  0  0  0  0  0  0  0  0  0  0  0
   -2.0299    5.8229    1.7225 C   0  0  0  0  0  0  0  0  0  0  0  0
   -3.2072    5.0813    1.5942 C   0  0  0  0  0  0  0  0  0  0  0  0
   -3.2181    3.7251    1.9305 C   0  0  0  0  0  0  0  0  0  0  0  0
   -2.0500    3.1062    2.3871 C   0  0  0  0  0  0  0  0  0  0  0  0
    1.3652   -2.3156   -0.8777 C   0  0  0  0  0  0  0  0  0  0  0  0
    1.9721   -0.9621   -1.2953 C   0  0  0  0  0  0  0  0  0  0  0  0
    2.8863   -1.0853   -2.5390 C   0  0  0  0  0  0  0  0  0  0  0  0
    2.6824   -2.3748   -3.3646 C   0  0  0  0  0  0  0  0  0  0  0  0
    1.2194   -2.8335   -3.3881 C   0  0  0  0  0  0  0  0  0  0  0  0
    0.6949   -2.9004   -2.0254 N   0  0  0  0  0  0  0  0  0  0  0  0
   -1.8795   -2.5493   -0.1398 H   0  0  0  0  0  0  0  0  0  0  0  0
   -0.9766   -4.0680    0.2838 H   0  0  0  0  0  0  0  0  0  0  0  0
    0.6992   -2.7722    1.1692 H   0  0  0  0  0  0  0  0  0  0  0  0
   -0.8225   -0.4257   -0.0165 H   0  0  0  0  0  0  0  0  0  0  0  0
    2.9314   -0.3582    3.9166 H   0  0  0  0  0  0  0  0  0  0  0  0
    2.2414    2.0007    4.3038 H   0  0  0  0  0  0  0  0  0  0  0  0
    0.0477    5.7886    2.2756 H   0  0  0  0  0  0  0  0  0  0  0  0
   -2.0235    6.8751    1.4692 H   0  0  0  0  0  0  0  0  0  0  0  0
   -4.1123    5.5590    1.2421 H   0  0  0  0  0  0  0  0  0  0  0  0
   -4.1344    3.1551    1.8464 H   0  0  0  0  0  0  0  0  0  0  0  0
   -2.0910    2.0657    2.6784 H   0  0  0  0  0  0  0  0  0  0  0  0
    2.1900   -2.9944   -0.5651 H   0  0  0  0  0  0  0  0  0  0  0  0
    2.5507   -0.5320   -0.4494 H   0  0  0  0  0  0  0  0  0  0  0  0
    1.1513   -0.2543   -1.5449 H   0  0  0  0  0  0  0  0  0  0  0  0
    3.9495   -1.0421   -2.2165 H   0  0  0  0  0  0  0  0  0  0  0  0
    2.7142   -0.2057   -3.1973 H   0  0  0  0  0  0  0  0  0  0  0  0
    3.0399   -2.2139   -4.4046 H   0  0  0  0  0  0  0  0  0  0  0  0
    3.2993   -3.1871   -2.9212 H   0  0  0  0  0  0  0  0  0  0  0  0
    1.1577   -3.8374   -3.8605 H   0  0  0  0  0  0  0  0  0  0  0  0
    0.6107   -2.1188   -3.9829 H   0  0  0  0  0  0  0  0  0  0  0  0
  1  2  2  0
  2  3  1  0
  3  4  1  0
  4  5  1  0
  5  6  1  0
  6  7  2  0
  7  8  1  0
  8  9  2  0
  9 10  1  0
 10 11  2  0
 10 12  1  0
 12 13  1  0
 13 14  2  0
 14 15  1  0
 15 16  2  0
 16 17  1  0
 17 18  2  0
  4 19  1  0
 19 20  1  0
 20 21  1  0
 21 22  1  0
 22 23  1  0
 23 24  1  0
 24  2  1  0
  6 11  1  0
 13 18  1  0
 24 19  1  0
  3 25  1  0
  3 26  1  0
  4 27  1  0
  5 28  1  0
  8 29  1  0
  9 30  1  0
 14 31  1  0
 15 32  1  0
 16 33  1  0
 17 34  1  0
 18 35  1  0
 19 36  1  0
 20 37  1  0
 20 38  1  0
 21 39  1  0
 21 40  1  0
 22 41  1  0
 22 42  1  0
 23 43  1  0
 23 44  1  0
M  END
$$$$
