
     RDKit          3D

 34 37  0  0  0  0  0  0  0  0999 V2000
   -3.7551   -1.1379    0.8849 C   0  0  0  0  0  0  0  0  0  0  0  0
   -2.3184   -0.8658    0.4309 C   0  0  1  0  0  0  0  0  0  0  0  0
   -1.8671    0.4465    0.9052 N   0  0  0  0  0  0  0  0  0  0  0  0
   -0.6476    1.0432    0.4381 C   0  0  0  0  0  0  0  0  0  0  0  0
    0.1402    0.4093   -0.4849 N   0  0  0  0  0  0  0  0  0  0  0  0
    1.3112    0.9584   -0.9353 C   0  0  0  0  0  0  0  0  0  0  0  0
    2.0993    0.2884   -1.8762 C   0  0  0  0  0  0  0  0  0  0  0  0
    3.2938    0.8664   -2.3228 C   0  0  0  0  0  0  0  0  0  0  0  0
    3.7041    2.1129   -1.8319 C   0  0  0  0  0  0  0  0  0  0  0  0
    2.9242    2.7929   -0.8897 C   0  0  0  0  0  0  0  0  0  0  0  0
    1.7280    2.2182   -0.4398 C   0  0  0  0  0  0  0  0  0  0  0  0
    0.9234    2.8191    0.4725 N   0  0  0  0  0  0  0  0  0  0  0  0
    1.0699    3.9752    1.0898 N   0  0  0  0  0  0  0  0  0  0  0  0
    0.0242    4.1353    1.8962 N   0  0  0  0  0  0  0  0  0  0  0  0
   -0.8013    3.0924    1.8087 N   0  0  0  0  0  0  0  0  0  0  0  0
   -0.2144    2.2832    0.9100 C   0  0  0  0  0  0  0  0  0  0  0  0
   -1.4028   -1.9459    0.9492 C   0  0  0  0  0  0  0  0  0  0  0  0
   -0.9036   -2.9419    0.0970 C   0  0  0  0  0  0  0  0  0  0  0  0
   -0.0870   -3.9051    0.5993 N   0  0  0  0  0  0  0  0  0  0  0  0
    0.2523   -3.9256    1.9147 C   0  0  0  0  0  0  0  0  0  0  0  0
   -0.2487   -2.9413    2.7678 C   0  0  0  0  0  0  0  0  0  0  0  0
   -1.0649   -1.9771    2.2682 N   0  0  0  0  0  0  0  0  0  0  0  0
   -4.4314   -0.3514    0.4876 H   0  0  0  0  0  0  0  0  0  0  0  0
   -3.8230   -1.1411    1.9942 H   0  0  0  0  0  0  0  0  0  0  0  0
   -4.0979   -2.1221    0.4995 H   0  0  0  0  0  0  0  0  0  0  0  0
   -2.3155   -0.8594   -0.6822 H   0  0  0  0  0  0  0  0  0  0  0  0
   -2.4455    0.9677    1.6037 H   0  0  0  0  0  0  0  0  0  0  0  0
    1.7907   -0.6758   -2.2608 H   0  0  0  0  0  0  0  0  0  0  0  0
    3.9035    0.3474   -3.0510 H   0  0  0  0  0  0  0  0  0  0  0  0
    4.6291    2.5518   -2.1829 H   0  0  0  0  0  0  0  0  0  0  0  0
    3.2510    3.7553   -0.5166 H   0  0  0  0  0  0  0  0  0  0  0  0
   -1.1577   -2.9526   -0.9550 H   0  0  0  0  0  0  0  0  0  0  0  0
    0.9037   -4.7011    2.2948 H   0  0  0  0  0  0  0  0  0  0  0  0
    0.0079   -2.9436    3.8187 H   0  0  0  0  0  0  0  0  0  0  0  0
  1  2  1  0
  2  3  1  0
  3  4  1  0
  4  5  2  0
  5  6  1  0
  6  7  2  0
  7  8  1  0
  8  9  2  0
  9 10  1  0
 10 11  2  0
 11 12  1  0
 12 13  1  0
 13 14  2  0
 14 15  1  0
 15 16  2  0
  2 17  1  0
 17 18  2  0
 18 19  1  0
 19 20  2  0
 20 21  1  0
 21 22  2  0
 16  4  1  0
  6 11  1  0
 16 12  1  0
 17 22  1  0
  1 23  1  0
  1 24  1  0
  1 25  1  0
  2 26  1  6
  3 27  1  0
  7 28  1  0
  8 29  1  0
  9 30  1  0
 10 31  1  0
 18 32  1  0
 20 33  1  0
 21 34  1  0
M  END
$$$$
