
     RDKit          3D

 45 47  0  0  0  0  0  0  0  0999 V2000
   -1.2760    4.4851    2.0479 C   0  0  0  0  0  0  0  0  0  0  0  0
   -0.5696    3.5814    2.9687 N   0  0  0  0  0  0  0  0  0  0  0  0
   -1.0756    2.2043    2.8700 C   0  0  0  0  0  0  0  0  0  0  0  0
    0.1234    1.2807    2.9519 C   0  0  0  0  0  0  0  0  0  0  0  0
    1.2636    2.0917    2.3377 C   0  0  0  0  0  0  0  0  0  0  0  0
    2.6217    1.7054    2.9620 C   0  0  0  0  0  0  0  0  0  0  0  0
    1.3109    1.9362    0.7891 C   0  0  0  0  0  0  0  0  0  0  0  0
    1.5959    0.5586    0.3789 N   0  0  0  0  0  0  0  0  0  0  0  0
    0.6025   -0.3189   -0.1707 C   0  0  0  0  0  0  0  0  0  0  0  0
   -0.5853    0.0805   -0.3144 O   0  0  0  0  0  0  0  0  0  0  0  0
    0.9603   -1.6671   -0.5107 N   0  0  0  0  0  0  0  0  0  0  0  0
    0.1092   -2.5691   -1.2386 C   0  0  0  0  0  0  0  0  0  0  0  0
    0.1614   -3.9416   -0.9568 C   0  0  0  0  0  0  0  0  0  0  0  0
   -0.6397   -4.8430   -1.6636 C   0  0  0  0  0  0  0  0  0  0  0  0
   -1.4974   -4.3866   -2.6780 C   0  0  0  0  0  0  0  0  0  0  0  0
   -1.5328   -3.0155   -2.9775 C   0  0  0  0  0  0  0  0  0  0  0  0
   -0.7319   -2.1146   -2.2692 C   0  0  0  0  0  0  0  0  0  0  0  0
   -2.3466   -5.3332   -3.4296 C   0  0  0  0  0  0  0  0  0  0  0  0
   -2.3680   -6.6653   -3.2060 N   0  0  0  0  0  0  0  0  0  0  0  0
   -3.2655   -7.1184   -4.1013 C   0  0  0  0  0  0  0  0  0  0  0  0
   -3.7524   -6.0580   -4.8293 C   0  0  0  0  0  0  0  0  0  0  0  0
   -3.1670   -4.9719   -4.3917 O   0  0  0  0  0  0  0  0  0  0  0  0
    0.8798    3.5404    2.7004 C   0  0  0  0  0  0  0  0  0  0  0  0
   -0.9169    5.5262    2.1942 H   0  0  0  0  0  0  0  0  0  0  0  0
   -1.1129    4.1913    0.9873 H   0  0  0  0  0  0  0  0  0  0  0  0
   -2.3656    4.4716    2.2655 H   0  0  0  0  0  0  0  0  0  0  0  0
   -1.6065    2.0179    1.9073 H   0  0  0  0  0  0  0  0  0  0  0  0
   -1.7800    2.0018    3.7049 H   0  0  0  0  0  0  0  0  0  0  0  0
   -0.0656    0.3157    2.4379 H   0  0  0  0  0  0  0  0  0  0  0  0
    0.3292    1.0661    4.0249 H   0  0  0  0  0  0  0  0  0  0  0  0
    3.4406    2.3026    2.5068 H   0  0  0  0  0  0  0  0  0  0  0  0
    2.8340    0.6268    2.8066 H   0  0  0  0  0  0  0  0  0  0  0  0
    2.6234    1.8912    4.0578 H   0  0  0  0  0  0  0  0  0  0  0  0
    0.3588    2.2856    0.3354 H   0  0  0  0  0  0  0  0  0  0  0  0
    2.1082    2.5929    0.3774 H   0  0  0  0  0  0  0  0  0  0  0  0
    2.5714    0.2009    0.4864 H   0  0  0  0  0  0  0  0  0  0  0  0
    1.8568   -2.0411   -0.1252 H   0  0  0  0  0  0  0  0  0  0  0  0
    0.8178   -4.3121   -0.1792 H   0  0  0  0  0  0  0  0  0  0  0  0
   -0.5860   -5.8960   -1.4171 H   0  0  0  0  0  0  0  0  0  0  0  0
   -2.1735   -2.6399   -3.7658 H   0  0  0  0  0  0  0  0  0  0  0  0
   -0.7531   -1.0693   -2.5467 H   0  0  0  0  0  0  0  0  0  0  0  0
   -3.5460   -8.1569   -4.2150 H   0  0  0  0  0  0  0  0  0  0  0  0
   -4.4862   -6.0948   -5.6231 H   0  0  0  0  0  0  0  0  0  0  0  0
    1.3951    3.8614    3.6318 H   0  0  0  0  0  0  0  0  0  0  0  0
    1.1981    4.2604    1.9106 H   0  0  0  0  0  0  0  0  0  0  0  0
  1  2  1  0
  2  3  1  0
  3  4  1  0
  4  5  1  0
  5  6  1  0
  5  7  1  0
  7  8  1  0
  8  9  1  0
  9 10  2  0
  9 11  1  0
 11 12  1  0
 12 13  2  0
 13 14  1  0
 14 15  2  0
 15 16  1  0
 16 17  2  0
 15 18  1  0
 18 19  2  0
 19 20  1  0
 20 21  2  0
 21 22  1  0
  5 23  1  0
 23  2  1  0
 12 17  1  0
 22 18  1  0
  1 24  1  0
  1 25  1  0
  1 26  1  0
  3 27  1  0
  3 28  1  0
  4 29  1  0
  4 30  1  0
  6 31  1  0
  6 32  1  0
  6 33  1  0
  7 34  1  0
  7 35  1  0
  8 36  1  0
 11 37  1  0
 13 38  1  0
 14 39  1  0
 16 40  1  0
 17 41  1  0
 20 42  1  0
 21 43  1  0
 23 44  1  0
 23 45  1  0
M  END
$$$$
