
     RDKit          3D

 54 58  0  0  0  0  0  0  0  0999 V2000
    1.1036    0.3969    3.5196 O   0  0  0  0  0  0  0  0  0  0  0  0
    1.1428   -0.0703    2.3487 C   0  0  0  0  0  0  0  0  0  0  0  0
    0.8891    0.8332    1.2110 C   0  0  0  0  0  0  0  0  0  0  0  0
    0.0087    0.4453    0.1691 C   0  0  0  0  0  0  0  0  0  0  0  0
   -0.2590    1.3100   -0.9080 C   0  0  0  0  0  0  0  0  0  0  0  0
    0.3672    2.5584   -0.9137 C   0  0  0  0  0  0  0  0  0  0  0  0
    1.2116    2.9359    0.0955 C   0  0  0  0  0  0  0  0  0  0  0  0
    1.4910    2.1094    1.1806 C   0  0  0  0  0  0  0  0  0  0  0  0
    1.6902    4.1665   -0.1462 N   0  0  0  0  0  0  0  0  0  0  0  0
    1.1138    4.5132   -1.3195 C   0  0  0  0  0  0  0  0  0  0  0  0
    1.3329    5.6167   -1.8865 O   0  0  0  0  0  0  0  0  0  0  0  0
    0.2863    3.5559   -1.8225 N   0  0  0  0  0  0  0  0  0  0  0  0
   -0.4976    3.5933   -3.0715 C   0  0  0  0  0  0  0  0  0  0  0  0
    0.4042    3.7737   -4.3037 C   0  0  0  0  0  0  0  0  0  0  0  0
    0.0439    5.1257   -4.9138 C   0  0  0  0  0  0  0  0  0  0  0  0
   -1.3740    5.4160   -4.4498 C   0  0  0  0  0  0  0  0  0  0  0  0
   -1.5038    4.7566   -3.0794 C   0  0  0  0  0  0  0  0  0  0  0  0
    1.4322   -1.4643    2.1520 N   0  0  0  0  0  0  0  0  0  0  0  0
    2.0389   -2.0077    0.9476 C   0  0  0  0  0  0  0  0  0  0  0  0
    2.5436   -3.3921    1.3375 C   0  0  0  0  0  0  0  0  0  0  0  0
    1.7825   -3.7705    2.6092 C   0  0  0  0  0  0  0  0  0  0  0  0
    1.3653   -2.4351    3.2293 C   0  0  0  0  0  0  0  0  0  0  0  0
    0.6350   -4.5482    2.2567 O   0  0  0  0  0  0  0  0  0  0  0  0
   -0.2206   -5.1950    3.1638 C   0  0  0  0  0  0  0  0  0  0  0  0
   -0.0099   -5.1699    4.5573 C   0  0  0  0  0  0  0  0  0  0  0  0
   -0.9054   -5.8119    5.4146 C   0  0  0  0  0  0  0  0  0  0  0  0
   -2.0112   -6.4889    4.8947 C   0  0  0  0  0  0  0  0  0  0  0  0
   -2.2181   -6.5331    3.5137 C   0  0  0  0  0  0  0  0  0  0  0  0
   -3.2897   -7.1952    3.0099 F   0  0  0  0  0  0  0  0  0  0  0  0
   -1.3276   -5.8868    2.6535 C   0  0  0  0  0  0  0  0  0  0  0  0
   -0.4897   -0.5148    0.2045 H   0  0  0  0  0  0  0  0  0  0  0  0
   -0.9342    1.0017   -1.6926 H   0  0  0  0  0  0  0  0  0  0  0  0
    2.1611    2.4372    1.9660 H   0  0  0  0  0  0  0  0  0  0  0  0
    2.3571    4.7232    0.4325 H   0  0  0  0  0  0  0  0  0  0  0  0
   -1.0646    2.6471   -3.1954 H   0  0  0  0  0  0  0  0  0  0  0  0
    0.1827    2.9702   -5.0427 H   0  0  0  0  0  0  0  0  0  0  0  0
    1.4914    3.7236   -4.0542 H   0  0  0  0  0  0  0  0  0  0  0  0
    0.1091    5.1072   -6.0252 H   0  0  0  0  0  0  0  0  0  0  0  0
    0.7334    5.9069   -4.5250 H   0  0  0  0  0  0  0  0  0  0  0  0
   -1.5617    6.5031   -4.3953 H   0  0  0  0  0  0  0  0  0  0  0  0
   -2.0984    4.9549   -5.1530 H   0  0  0  0  0  0  0  0  0  0  0  0
   -1.2749    5.4998   -2.2859 H   0  0  0  0  0  0  0  0  0  0  0  0
   -2.5452    4.3951   -2.9153 H   0  0  0  0  0  0  0  0  0  0  0  0
    1.2780   -2.0927    0.1435 H   0  0  0  0  0  0  0  0  0  0  0  0
    2.8826   -1.3660    0.6082 H   0  0  0  0  0  0  0  0  0  0  0  0
    2.3828   -4.1299    0.5210 H   0  0  0  0  0  0  0  0  0  0  0  0
    3.6323   -3.3370    1.5620 H   0  0  0  0  0  0  0  0  0  0  0  0
    2.4446   -4.3523    3.2877 H   0  0  0  0  0  0  0  0  0  0  0  0
    2.0781   -2.1499    4.0324 H   0  0  0  0  0  0  0  0  0  0  0  0
    0.3352   -2.4719    3.6432 H   0  0  0  0  0  0  0  0  0  0  0  0
    0.8353   -4.6515    4.9871 H   0  0  0  0  0  0  0  0  0  0  0  0
   -0.7470   -5.7795    6.4853 H   0  0  0  0  0  0  0  0  0  0  0  0
   -2.7008   -6.9845    5.5613 H   0  0  0  0  0  0  0  0  0  0  0  0
   -1.4976   -5.9190    1.5852 H   0  0  0  0  0  0  0  0  0  0  0  0
  1  2  2  0
  2  3  1  0
  3  4  2  0
  4  5  1  0
  5  6  2  0
  6  7  1  0
  7  8  2  0
  7  9  1  0
  9 10  1  0
 10 11  2  0
 10 12  1  0
 12 13  1  0
 13 14  1  0
 14 15  1  0
 15 16  1  0
 16 17  1  0
  2 18  1  0
 18 19  1  0
 19 20  1  0
 20 21  1  0
 21 22  1  0
 21 23  1  0
 23 24  1  0
 24 25  2  0
 25 26  1  0
 26 27  2  0
 27 28  1  0
 28 29  1  0
 28 30  2  0
  3  8  1  0
 12  6  1  0
 17 13  1  0
 22 18  1  0
 24 30  1  0
  4 31  1  0
  5 32  1  0
  8 33  1  0
  9 34  1  0
 13 35  1  0
 14 36  1  0
 14 37  1  0
 15 38  1  0
 15 39  1  0
 16 40  1  0
 16 41  1  0
 17 42  1  0
 17 43  1  0
 19 44  1  0
 19 45  1  0
 20 46  1  0
 20 47  1  0
 21 48  1  0
 22 49  1  0
 22 50  1  0
 25 51  1  0
 26 52  1  0
 27 53  1  0
 30 54  1  0
M  END
$$$$
