
     RDKit          3D

 48 50  0  0  0  0  0  0  0  0999 V2000
   -3.9623    0.7011   -0.5854 C   0  0  0  0  0  0  0  0  0  0  0  0
   -2.7932    0.6724   -1.5266 C   0  0  0  0  0  0  0  0  0  0  0  0
   -1.9989    1.8174   -1.7061 C   0  0  0  0  0  0  0  0  0  0  0  0
   -0.8969    1.7823   -2.5670 C   0  0  0  0  0  0  0  0  0  0  0  0
   -0.5676    0.5993   -3.2397 C   0  0  0  0  0  0  0  0  0  0  0  0
   -1.3498   -0.5480   -3.0549 C   0  0  0  0  0  0  0  0  0  0  0  0
   -2.4507   -0.5163   -2.1916 C   0  0  0  0  0  0  0  0  0  0  0  0
    0.8488    0.5574   -4.3446 S   0  0  0  0  0  0  0  0  0  0  0  0
    1.9997   -0.1116   -3.0941 C   0  0  0  0  0  0  0  0  0  0  0  0
    2.3301    0.9232   -2.0556 C   0  0  0  0  0  0  0  0  0  0  0  0
    2.7166    2.0638   -2.4256 O   0  0  0  0  0  0  0  0  0  0  0  0
    2.2016    0.6398   -0.6517 N   0  0  0  0  0  0  0  0  0  0  0  0
    1.5936    1.6462    0.2261 C   0  0  0  0  0  0  0  0  0  0  0  0
    1.5549    1.1677    1.6842 C   0  0  0  0  0  0  0  0  0  0  0  0
    0.9244   -0.2509    1.8433 C   0  0  0  0  0  0  0  0  0  0  0  0
    1.4549   -1.2254    0.7248 C   0  0  0  0  0  0  0  0  0  0  0  0
    2.6162   -0.6492   -0.0867 C   0  0  0  0  0  0  0  0  0  0  0  0
    1.3163   -0.7481    3.2755 C   0  0  0  0  0  0  0  0  0  0  0  0
    0.4456   -1.8976    3.8044 C   0  0  0  0  0  0  0  0  0  0  0  0
    0.8162   -3.1105    3.2006 O   0  0  0  0  0  0  0  0  0  0  0  0
   -1.0288   -1.5954    3.5418 C   0  0  0  0  0  0  0  0  0  0  0  0
   -1.2290   -1.2324    2.0736 C   0  0  0  0  0  0  0  0  0  0  0  0
   -0.4878   -0.0740    1.7240 O   0  0  0  0  0  0  0  0  0  0  0  0
   -3.6250    0.3954    0.4270 H   0  0  0  0  0  0  0  0  0  0  0  0
   -4.7601    0.0063   -0.9302 H   0  0  0  0  0  0  0  0  0  0  0  0
   -4.3946    1.7229   -0.5273 H   0  0  0  0  0  0  0  0  0  0  0  0
   -2.2342    2.7367   -1.1839 H   0  0  0  0  0  0  0  0  0  0  0  0
   -0.2955    2.6722   -2.7034 H   0  0  0  0  0  0  0  0  0  0  0  0
   -1.1001   -1.4666   -3.5706 H   0  0  0  0  0  0  0  0  0  0  0  0
   -3.0395   -1.4149   -2.0488 H   0  0  0  0  0  0  0  0  0  0  0  0
    1.5390   -1.0108   -2.6360 H   0  0  0  0  0  0  0  0  0  0  0  0
    2.9360   -0.4219   -3.6025 H   0  0  0  0  0  0  0  0  0  0  0  0
    2.1765    2.5907    0.1735 H   0  0  0  0  0  0  0  0  0  0  0  0
    0.5581    1.8542   -0.1153 H   0  0  0  0  0  0  0  0  0  0  0  0
    2.5986    1.1720    2.0742 H   0  0  0  0  0  0  0  0  0  0  0  0
    0.9834    1.9064    2.2898 H   0  0  0  0  0  0  0  0  0  0  0  0
    1.7792   -2.1987    1.1442 H   0  0  0  0  0  0  0  0  0  0  0  0
    0.6431   -1.4422   -0.0034 H   0  0  0  0  0  0  0  0  0  0  0  0
    2.9217   -1.3683   -0.8749 H   0  0  0  0  0  0  0  0  0  0  0  0
    3.4992   -0.4997    0.5718 H   0  0  0  0  0  0  0  0  0  0  0  0
    2.3871   -1.0497    3.2999 H   0  0  0  0  0  0  0  0  0  0  0  0
    1.2069    0.0947    3.9964 H   0  0  0  0  0  0  0  0  0  0  0  0
    0.6068   -1.9717    4.9067 H   0  0  0  0  0  0  0  0  0  0  0  0
    0.4558   -3.8398    3.7709 H   0  0  0  0  0  0  0  0  0  0  0  0
   -1.3547   -0.7430    4.1784 H   0  0  0  0  0  0  0  0  0  0  0  0
   -1.6526   -2.4791    3.8004 H   0  0  0  0  0  0  0  0  0  0  0  0
   -2.3067   -1.0137    1.9198 H   0  0  0  0  0  0  0  0  0  0  0  0
   -0.9882   -2.0969    1.4171 H   0  0  0  0  0  0  0  0  0  0  0  0
  1  2  1  0
  2  3  2  0
  3  4  1  0
  4  5  2  0
  5  6  1  0
  6  7  2  0
  5  8  1  0
  8  9  1  0
  9 10  1  0
 10 11  2  0
 10 12  1  0
 12 13  1  0
 13 14  1  0
 14 15  1  0
 15 16  1  0
 16 17  1  0
 15 18  1  0
 18 19  1  0
 19 20  1  0
 19 21  1  0
 21 22  1  0
 22 23  1  0
  2  7  1  0
 17 12  1  0
 23 15  1  0
  1 24  1  0
  1 25  1  0
  1 26  1  0
  3 27  1  0
  4 28  1  0
  6 29  1  0
  7 30  1  0
  9 31  1  0
  9 32  1  0
 13 33  1  0
 13 34  1  0
 14 35  1  0
 14 36  1  0
 16 37  1  0
 16 38  1  0
 17 39  1  0
 17 40  1  0
 18 41  1  0
 18 42  1  0
 19 43  1  0
 20 44  1  0
 21 45  1  0
 21 46  1  0
 22 47  1  0
 22 48  1  0
M  END
$$$$
