
     RDKit          3D

 48 50  0  0  0  0  0  0  0  0999 V2000
    3.3970   -1.0434    5.2437 C   0  0  0  0  0  0  0  0  0  0  0  0
    2.2843   -0.3105    4.5546 C   0  0  0  0  0  0  0  0  0  0  0  0
    1.8013   -0.7507    3.3118 C   0  0  0  0  0  0  0  0  0  0  0  0
    0.7432   -0.0808    2.6906 C   0  0  0  0  0  0  0  0  0  0  0  0
    0.1568    1.0310    3.3064 C   0  0  0  0  0  0  0  0  0  0  0  0
    0.6210    1.4618    4.5546 C   0  0  0  0  0  0  0  0  0  0  0  0
    1.6798    0.7929    5.1775 C   0  0  0  0  0  0  0  0  0  0  0  0
   -1.2090    1.8800    2.5084 S   0  0  0  0  0  0  0  0  0  0  0  0
   -0.1721    3.1451    1.6882 C   0  0  0  0  0  0  0  0  0  0  0  0
    0.7708    2.5273    0.6908 C   0  0  0  0  0  0  0  0  0  0  0  0
    2.0044    2.5457    0.9580 O   0  0  0  0  0  0  0  0  0  0  0  0
    0.3155    1.8827   -0.5226 N   0  0  0  0  0  0  0  0  0  0  0  0
   -1.0810    1.9394   -0.9823 C   0  0  0  0  0  0  0  0  0  0  0  0
   -1.5703    0.5284   -1.3299 C   0  0  0  0  0  0  0  0  0  0  0  0
   -0.6085   -0.2683   -2.2816 C   0  0  0  0  0  0  0  0  0  0  0  0
    0.6645    0.5636   -2.6076 C   0  0  0  0  0  0  0  0  0  0  0  0
    1.3015    1.1654   -1.3465 C   0  0  0  0  0  0  0  0  0  0  0  0
   -0.1937   -1.6150   -1.5870 C   0  0  0  0  0  0  0  0  0  0  0  0
   -1.2308   -2.6993   -1.8827 C   0  0  0  0  0  0  0  0  0  0  0  0
   -0.8487   -3.8955   -1.2562 O   0  0  0  0  0  0  0  0  0  0  0  0
   -1.3571   -2.9068   -3.4050 C   0  0  0  0  0  0  0  0  0  0  0  0
   -0.9393   -1.6509   -4.1868 C   0  0  0  0  0  0  0  0  0  0  0  0
   -1.3294   -0.4757   -3.5016 O   0  0  0  0  0  0  0  0  0  0  0  0
    3.9667   -1.6720    4.5262 H   0  0  0  0  0  0  0  0  0  0  0  0
    4.1023   -0.3208    5.7062 H   0  0  0  0  0  0  0  0  0  0  0  0
    2.9731   -1.6955    6.0364 H   0  0  0  0  0  0  0  0  0  0  0  0
    2.2425   -1.6106    2.8235 H   0  0  0  0  0  0  0  0  0  0  0  0
    0.3809   -0.4243    1.7305 H   0  0  0  0  0  0  0  0  0  0  0  0
    0.1636    2.3137    5.0419 H   0  0  0  0  0  0  0  0  0  0  0  0
    2.0279    1.1335    6.1450 H   0  0  0  0  0  0  0  0  0  0  0  0
   -0.8218    3.8873    1.1816 H   0  0  0  0  0  0  0  0  0  0  0  0
    0.3999    3.6987    2.4638 H   0  0  0  0  0  0  0  0  0  0  0  0
   -1.7626    2.3691   -0.2247 H   0  0  0  0  0  0  0  0  0  0  0  0
   -1.1465    2.5927   -1.8792 H   0  0  0  0  0  0  0  0  0  0  0  0
   -2.5784    0.6204   -1.7908 H   0  0  0  0  0  0  0  0  0  0  0  0
   -1.7379   -0.0095   -0.3718 H   0  0  0  0  0  0  0  0  0  0  0  0
    1.4212   -0.0551   -3.1367 H   0  0  0  0  0  0  0  0  0  0  0  0
    0.3970    1.3920   -3.3007 H   0  0  0  0  0  0  0  0  0  0  0  0
    2.1098    1.8637   -1.6532 H   0  0  0  0  0  0  0  0  0  0  0  0
    1.7575    0.3496   -0.7441 H   0  0  0  0  0  0  0  0  0  0  0  0
   -0.0689   -1.4919   -0.4898 H   0  0  0  0  0  0  0  0  0  0  0  0
    0.7907   -1.9685   -1.9679 H   0  0  0  0  0  0  0  0  0  0  0  0
   -2.2117   -2.3610   -1.4723 H   0  0  0  0  0  0  0  0  0  0  0  0
   -1.6426   -4.4916   -1.2735 H   0  0  0  0  0  0  0  0  0  0  0  0
   -2.4117   -3.1638   -3.6477 H   0  0  0  0  0  0  0  0  0  0  0  0
   -0.7178   -3.7553   -3.7346 H   0  0  0  0  0  0  0  0  0  0  0  0
    0.1574   -1.6549   -4.3764 H   0  0  0  0  0  0  0  0  0  0  0  0
   -1.4344   -1.6650   -5.1809 H   0  0  0  0  0  0  0  0  0  0  0  0
  1  2  1  0
  2  3  2  0
  3  4  1  0
  4  5  2  0
  5  6  1  0
  6  7  2  0
  5  8  1  0
  8  9  1  0
  9 10  1  0
 10 11  2  0
 10 12  1  0
 12 13  1  0
 13 14  1  0
 14 15  1  0
 15 16  1  0
 16 17  1  0
 15 18  1  0
 18 19  1  0
 19 20  1  0
 19 21  1  0
 21 22  1  0
 22 23  1  0
  2  7  1  0
 17 12  1  0
 23 15  1  0
  1 24  1  0
  1 25  1  0
  1 26  1  0
  3 27  1  0
  4 28  1  0
  6 29  1  0
  7 30  1  0
  9 31  1  0
  9 32  1  0
 13 33  1  0
 13 34  1  0
 14 35  1  0
 14 36  1  0
 16 37  1  0
 16 38  1  0
 17 39  1  0
 17 40  1  0
 18 41  1  0
 18 42  1  0
 19 43  1  0
 20 44  1  0
 21 45  1  0
 21 46  1  0
 22 47  1  0
 22 48  1  0
M  END
$$$$
