
     RDKit          3D

 43 46  0  0  0  0  0  0  0  0999 V2000
   -4.6806    1.1175    2.0230 C   0  0  0  0  0  0  0  0  0  0  0  0
   -4.4254   -0.3897    2.1973 C   0  0  0  0  0  0  0  0  0  0  0  0
   -4.2461   -1.1674    0.8743 C   0  0  0  0  0  0  0  0  0  0  0  0
   -3.1533   -0.6145    0.0780 N   0  0  0  0  0  0  0  0  0  0  0  0
   -1.8482   -0.9196    0.1754 C   0  0  0  0  0  0  0  0  0  0  0  0
   -1.2008   -0.1209   -0.7454 C   0  0  0  0  0  0  0  0  0  0  0  0
   -2.1242    0.6420   -1.3664 N   0  0  0  0  0  0  0  0  0  0  0  0
   -3.3000    0.3222   -0.8455 N   0  0  0  0  0  0  0  0  0  0  0  0
    0.2424   -0.0620   -1.0301 C   0  0  0  0  0  0  0  0  0  0  0  0
    0.6634    0.7626   -1.8861 O   0  0  0  0  0  0  0  0  0  0  0  0
    1.1686   -0.9207   -0.3498 N   0  0  0  0  0  0  0  0  0  0  0  0
    2.5990   -0.8685   -0.6358 C   0  0  2  0  0  0  0  0  0  0  0  0
    3.4762   -1.0685    0.5965 C   0  0  0  0  0  0  0  0  0  0  0  0
    3.2931    0.3271    0.0068 C   0  0  1  0  0  0  0  0  0  0  0  0
    4.4788    0.9189   -0.7345 C   0  0  0  0  0  0  0  0  0  0  0  0
    5.3536    0.1602   -1.5442 C   0  0  0  0  0  0  0  0  0  0  0  0
    6.4238    0.7759   -2.2004 C   0  0  0  0  0  0  0  0  0  0  0  0
    6.6372    2.1483   -2.0611 C   0  0  0  0  0  0  0  0  0  0  0  0
    5.7804    2.9099   -1.2643 C   0  0  0  0  0  0  0  0  0  0  0  0
    5.9879    4.2430   -1.1295 F   0  0  0  0  0  0  0  0  0  0  0  0
    4.7084    2.2996   -0.6056 C   0  0  0  0  0  0  0  0  0  0  0  0
   -5.3923   -1.0564    3.1608 C   0  0  0  0  0  0  0  0  0  0  0  0
   -4.3798   -1.3157    4.1048 O   0  0  0  0  0  0  0  0  0  0  0  0
   -3.4084   -0.7230    3.2747 C   0  0  0  0  0  0  0  0  0  0  0  0
   -5.5578    1.2784    1.3614 H   0  0  0  0  0  0  0  0  0  0  0  0
   -4.8801    1.6088    3.0000 H   0  0  0  0  0  0  0  0  0  0  0  0
   -3.7924    1.6058    1.5703 H   0  0  0  0  0  0  0  0  0  0  0  0
   -4.0483   -2.2444    1.0737 H   0  0  0  0  0  0  0  0  0  0  0  0
   -5.1898   -1.1108    0.2893 H   0  0  0  0  0  0  0  0  0  0  0  0
   -1.4230   -1.6477    0.8524 H   0  0  0  0  0  0  0  0  0  0  0  0
    0.8178   -1.6696    0.2871 H   0  0  0  0  0  0  0  0  0  0  0  0
    2.9563   -1.2512   -1.6140 H   0  0  0  0  0  0  0  0  0  0  0  0
    4.4450   -1.5700    0.3965 H   0  0  0  0  0  0  0  0  0  0  0  0
    2.9253   -1.2316    1.5474 H   0  0  0  0  0  0  0  0  0  0  0  0
    2.6426    0.9959    0.6129 H   0  0  0  0  0  0  0  0  0  0  0  0
    5.2220   -0.9044   -1.6759 H   0  0  0  0  0  0  0  0  0  0  0  0
    7.0893    0.1869   -2.8184 H   0  0  0  0  0  0  0  0  0  0  0  0
    7.4670    2.6205   -2.5711 H   0  0  0  0  0  0  0  0  0  0  0  0
    4.0541    2.9076    0.0074 H   0  0  0  0  0  0  0  0  0  0  0  0
   -5.8312   -2.0069    2.7833 H   0  0  0  0  0  0  0  0  0  0  0  0
   -6.1626   -0.3742    3.5847 H   0  0  0  0  0  0  0  0  0  0  0  0
   -2.6466   -1.4731    2.9707 H   0  0  0  0  0  0  0  0  0  0  0  0
   -2.9575    0.1678    3.7660 H   0  0  0  0  0  0  0  0  0  0  0  0
  1  2  1  0
  2  3  1  0
  3  4  1  0
  4  5  1  0
  5  6  2  0
  6  7  1  0
  7  8  2  0
  6  9  1  0
  9 10  2  0
  9 11  1  0
 11 12  1  0
 12 13  1  0
 13 14  1  0
 14 15  1  0
 15 16  2  0
 16 17  1  0
 17 18  2  0
 18 19  1  0
 19 20  1  0
 19 21  2  0
  2 22  1  0
 22 23  1  0
 23 24  1  0
 24  2  1  0
  8  4  1  0
 14 12  1  0
 15 21  1  0
  1 25  1  0
  1 26  1  0
  1 27  1  0
  3 28  1  0
  3 29  1  0
  5 30  1  0
 11 31  1  0
 12 32  1  6
 13 33  1  0
 13 34  1  0
 14 35  1  1
 16 36  1  0
 17 37  1  0
 18 38  1  0
 21 39  1  0
 22 40  1  0
 22 41  1  0
 24 42  1  0
 24 43  1  0
M  END
$$$$
