
     RDKit          3D

 44 47  0  0  0  0  0  0  0  0999 V2000
   -5.0619    0.2447    0.2099 C   0  0  0  0  0  0  0  0  0  0  0  0
   -3.9153   -0.5026   -0.0728 C   0  0  0  0  0  0  0  0  0  0  0  0
   -3.0142   -0.0613   -1.0465 C   0  0  0  0  0  0  0  0  0  0  0  0
   -3.2482    1.1439   -1.7343 C   0  0  0  0  0  0  0  0  0  0  0  0
   -4.4124    1.8734   -1.4614 C   0  0  0  0  0  0  0  0  0  0  0  0
   -5.3131    1.4293   -0.4880 C   0  0  0  0  0  0  0  0  0  0  0  0
   -2.3683    1.6198   -2.7165 O   0  0  0  0  0  0  0  0  0  0  0  0
   -0.9755    1.4752   -2.6796 C   0  0  0  0  0  0  0  0  0  0  0  0
   -0.2333    1.6920   -3.8407 C   0  0  0  0  0  0  0  0  0  0  0  0
    1.1545    1.5729   -3.7779 C   0  0  0  0  0  0  0  0  0  0  0  0
    1.7562    1.2603   -2.6011 N   0  0  0  0  0  0  0  0  0  0  0  0
    1.0248    1.0553   -1.4731 C   0  0  0  0  0  0  0  0  0  0  0  0
   -0.3308    1.1683   -1.5206 N   0  0  0  0  0  0  0  0  0  0  0  0
    1.6903    0.7443   -0.2415 N   0  0  0  0  0  0  0  0  0  0  0  0
    0.9596    0.4729    1.0041 C   0  0  0  0  0  0  0  0  0  0  0  0
    0.3297   -0.9508    0.9632 C   0  0  0  0  0  0  0  0  0  0  0  0
    1.3480   -2.0831    1.2222 C   0  0  0  0  0  0  0  0  0  0  0  0
    2.0910   -1.7842    2.5225 C   0  0  0  0  0  0  0  0  0  0  0  0
    3.0368   -2.7542    2.8849 O   0  0  0  0  0  0  0  0  0  0  0  0
    3.9610   -2.0666    3.7149 C   0  0  0  0  0  0  0  0  0  0  0  0
    3.7340   -0.5539    3.5824 C   0  0  0  0  0  0  0  0  0  0  0  0
    2.8525   -0.4957    2.3714 C   0  0  0  0  0  0  0  0  0  0  0  0
    1.8759    0.6787    2.2433 C   0  0  0  0  0  0  0  0  0  0  0  0
   -5.7599   -0.0988    0.9624 H   0  0  0  0  0  0  0  0  0  0  0  0
   -3.7294   -1.4289    0.4555 H   0  0  0  0  0  0  0  0  0  0  0  0
   -2.1553   -0.6732   -1.2830 H   0  0  0  0  0  0  0  0  0  0  0  0
   -4.6127    2.7927   -1.9970 H   0  0  0  0  0  0  0  0  0  0  0  0
   -6.2057    2.0033   -0.2750 H   0  0  0  0  0  0  0  0  0  0  0  0
   -0.7222    1.9479   -4.7719 H   0  0  0  0  0  0  0  0  0  0  0  0
    1.7544    1.7335   -4.6637 H   0  0  0  0  0  0  0  0  0  0  0  0
    2.7344    0.7816   -0.2367 H   0  0  0  0  0  0  0  0  0  0  0  0
    0.1342    1.2139    1.0920 H   0  0  0  0  0  0  0  0  0  0  0  0
   -0.1571   -1.1272   -0.0177 H   0  0  0  0  0  0  0  0  0  0  0  0
   -0.4695   -1.0065    1.7349 H   0  0  0  0  0  0  0  0  0  0  0  0
    0.8094   -3.0506    1.3148 H   0  0  0  0  0  0  0  0  0  0  0  0
    2.0600   -2.1600    0.3710 H   0  0  0  0  0  0  0  0  0  0  0  0
    1.3380   -1.7097    3.3458 H   0  0  0  0  0  0  0  0  0  0  0  0
    4.9927   -2.3235    3.3923 H   0  0  0  0  0  0  0  0  0  0  0  0
    3.8288   -2.3885    4.7704 H   0  0  0  0  0  0  0  0  0  0  0  0
    3.2077   -0.1607    4.4809 H   0  0  0  0  0  0  0  0  0  0  0  0
    4.6863   -0.0023    3.4241 H   0  0  0  0  0  0  0  0  0  0  0  0
    3.5094   -0.5421    1.4721 H   0  0  0  0  0  0  0  0  0  0  0  0
    2.4421    1.6301    2.1448 H   0  0  0  0  0  0  0  0  0  0  0  0
    1.2466    0.7516    3.1580 H   0  0  0  0  0  0  0  0  0  0  0  0
  1  2  2  0
  2  3  1  0
  3  4  2  0
  4  5  1  0
  5  6  2  0
  4  7  1  0
  7  8  1  0
  8  9  2  0
  9 10  1  0
 10 11  2  0
 11 12  1  0
 12 13  2  0
 12 14  1  0
 14 15  1  0
 15 16  1  0
 16 17  1  0
 17 18  1  0
 18 19  1  0
 19 20  1  0
 20 21  1  0
 21 22  1  0
 22 23  1  0
  6  1  1  0
  8 13  1  0
 23 15  1  0
 22 18  1  0
  1 24  1  0
  2 25  1  0
  3 26  1  0
  5 27  1  0
  6 28  1  0
  9 29  1  0
 10 30  1  0
 14 31  1  0
 15 32  1  0
 16 33  1  0
 16 34  1  0
 17 35  1  0
 17 36  1  0
 18 37  1  0
 20 38  1  0
 20 39  1  0
 21 40  1  0
 21 41  1  0
 22 42  1  0
 23 43  1  0
 23 44  1  0
M  END
$$$$
