
     RDKit          3D

 43 46  0  0  0  0  0  0  0  0999 V2000
   -0.4365   -3.5886   -3.0993 C   0  0  0  0  0  0  0  0  0  0  0  0
   -0.8750   -2.1978   -3.0170 N   0  0  0  0  0  0  0  0  0  0  0  0
   -2.1366   -1.7150   -3.1412 C   0  0  0  0  0  0  0  0  0  0  0  0
   -3.1344   -2.4368   -3.4123 O   0  0  0  0  0  0  0  0  0  0  0  0
   -2.2169   -0.3790   -2.9214 N   0  0  0  0  0  0  0  0  0  0  0  0
   -3.4193    0.4490   -2.8782 C   0  0  0  0  0  0  0  0  0  0  0  0
   -0.9554   -0.0210   -2.6066 C   0  0  0  0  0  0  0  0  0  0  0  0
   -0.4741    1.2282   -2.2197 C   0  0  0  0  0  0  0  0  0  0  0  0
    0.8933    1.3418   -1.8849 C   0  0  0  0  0  0  0  0  0  0  0  0
    1.7358    0.1927   -1.9487 C   0  0  0  0  0  0  0  0  0  0  0  0
    3.5996    0.2655   -1.5015 Br  0  0  0  0  0  0  0  0  0  0  0  0
    1.2088   -1.0537   -2.3389 C   0  0  0  0  0  0  0  0  0  0  0  0
   -0.1442   -1.1211   -2.6638 C   0  0  0  0  0  0  0  0  0  0  0  0
    1.5182    2.9046   -1.3433 S   0  0  0  0  0  0  0  0  0  0  0  0
    2.5906    3.3546   -2.2950 O   0  0  0  0  0  0  0  0  0  0  0  0
    0.4293    3.9409   -1.3236 O   0  0  0  0  0  0  0  0  0  0  0  0
    2.1861    2.7538    0.2513 N   0  0  0  0  0  0  0  0  0  0  0  0
    1.5299    2.0451    1.3154 C   0  0  0  0  0  0  0  0  0  0  0  0
    2.2978    1.5622    2.4008 C   0  0  0  0  0  0  0  0  0  0  0  0
    1.6901    0.8492    3.4474 C   0  0  0  0  0  0  0  0  0  0  0  0
    0.3140    0.6349    3.3946 C   0  0  0  0  0  0  0  0  0  0  0  0
   -0.5492   -0.0858    4.3714 C   0  0  0  0  0  0  0  0  0  0  0  0
   -1.9639    0.0273    3.7477 C   0  0  0  0  0  0  0  0  0  0  0  0
   -1.7988    0.7816    2.5081 N   0  0  0  0  0  0  0  0  0  0  0  0
   -0.4349    1.1086    2.3575 C   0  0  0  0  0  0  0  0  0  0  0  0
    0.1340    1.8229    1.3047 C   0  0  0  0  0  0  0  0  0  0  0  0
    0.5243   -3.6505   -3.6521 H   0  0  0  0  0  0  0  0  0  0  0  0
   -0.2993   -3.9961   -2.0759 H   0  0  0  0  0  0  0  0  0  0  0  0
   -1.1891   -4.2028   -3.6377 H   0  0  0  0  0  0  0  0  0  0  0  0
   -4.2472   -0.0388   -3.4347 H   0  0  0  0  0  0  0  0  0  0  0  0
   -3.7285    0.6001   -1.8230 H   0  0  0  0  0  0  0  0  0  0  0  0
   -3.2184    1.4347   -3.3478 H   0  0  0  0  0  0  0  0  0  0  0  0
   -1.1397    2.0789   -2.1625 H   0  0  0  0  0  0  0  0  0  0  0  0
    1.8360   -1.9348   -2.3759 H   0  0  0  0  0  0  0  0  0  0  0  0
    3.1740    3.0664    0.3839 H   0  0  0  0  0  0  0  0  0  0  0  0
    3.3671    1.7290    2.4268 H   0  0  0  0  0  0  0  0  0  0  0  0
    2.2780    0.4735    4.2749 H   0  0  0  0  0  0  0  0  0  0  0  0
   -0.5092    0.4137    5.3632 H   0  0  0  0  0  0  0  0  0  0  0  0
   -0.2334   -1.1477    4.4550 H   0  0  0  0  0  0  0  0  0  0  0  0
   -2.3756   -0.9799    3.5222 H   0  0  0  0  0  0  0  0  0  0  0  0
   -2.6521    0.5716    4.4293 H   0  0  0  0  0  0  0  0  0  0  0  0
   -2.5635    1.0348    1.8437 H   0  0  0  0  0  0  0  0  0  0  0  0
   -0.4983    2.1990    0.5139 H   0  0  0  0  0  0  0  0  0  0  0  0
  1  2  1  0
  2  3  1  0
  3  4  2  0
  3  5  1  0
  5  6  1  0
  5  7  1  0
  7  8  2  0
  8  9  1  0
  9 10  2  0
 10 11  1  0
 10 12  1  0
 12 13  2  0
  9 14  1  0
 14 15  2  0
 14 16  2  0
 14 17  1  0
 17 18  1  0
 18 19  2  0
 19 20  1  0
 20 21  2  0
 21 22  1  0
 22 23  1  0
 23 24  1  0
 24 25  1  0
 25 26  2  0
 13  2  1  0
  7 13  1  0
 18 26  1  0
 21 25  1  0
  1 27  1  0
  1 28  1  0
  1 29  1  0
  6 30  1  0
  6 31  1  0
  6 32  1  0
  8 33  1  0
 12 34  1  0
 17 35  1  0
 19 36  1  0
 20 37  1  0
 22 38  1  0
 22 39  1  0
 23 40  1  0
 23 41  1  0
 24 42  1  0
 26 43  1  0
M  END
$$$$
