
     RDKit          3D

  0  0  0  0  0  0  0  0  0  0999 V3000
M  V30 BEGIN CTAB
M  V30 COUNTS 39 41 0 0 0
M  V30 BEGIN ATOM
M  V30 1 O 0.972350 -2.148761 0.333130 0
M  V30 2 C 1.432519 -1.361160 -0.538569 0
M  V30 3 N 0.585388 -0.346150 -1.101020 0
M  V30 4 C -0.717232 -0.002038 -0.513364 0 CFG=2
M  V30 5 C -1.564747 0.830183 -1.495834 0
M  V30 6 C -0.954217 2.206000 -1.790136 0
M  V30 7 C -0.465277 2.890163 -0.548834 0
M  V30 8 O -0.279518 4.135919 -0.566516 0
M  V30 9 N -0.138025 2.145207 0.631513 0
M  V30 10 C -0.526206 0.745240 0.831778 0 CFG=1
M  V30 11 C -1.765352 0.639614 1.704301 0
M  V30 12 C -1.923841 -0.481128 2.540250 0
M  V30 13 C -3.069348 -0.622757 3.328901 0
M  V30 14 C -4.074044 0.345960 3.285015 0
M  V30 15 C -3.937158 1.455883 2.448752 0
M  V30 16 C -2.793587 1.602666 1.657899 0
M  V30 17 C 2.833631 -1.517563 -0.990360 0
M  V30 18 C 3.431001 -2.788651 -0.994080 0
M  V30 19 C 4.750457 -2.944104 -1.420776 0
M  V30 20 C 5.472028 -1.823991 -1.831925 0
M  V30 21 N 4.893107 -0.595185 -1.805780 0
M  V30 22 C 3.607760 -0.413486 -1.399368 0
M  V30 23 F 3.110001 0.847357 -1.350303 0
M  V30 24 H 0.867183 0.071097 -2.015717 0
M  V30 25 H -1.270451 -0.950679 -0.329210 0
M  V30 26 H -2.585894 0.965555 -1.079198 0
M  V30 27 H -1.678863 0.271972 -2.450460 0
M  V30 28 H -1.721964 2.840729 -2.283107 0
M  V30 29 H -0.104110 2.103628 -2.496510 0
M  V30 30 H 0.260680 2.662737 1.447442 0
M  V30 31 H 0.306655 0.257639 1.384682 0
M  V30 32 H -1.160007 -1.248103 2.578897 0
M  V30 33 H -3.179613 -1.486617 3.971615 0
M  V30 34 H -4.961009 0.233959 3.895099 0
M  V30 35 H -4.720205 2.202120 2.409888 0
M  V30 36 H -2.719286 2.466047 1.011162 0
M  V30 37 H 2.872674 -3.662321 -0.680783 0
M  V30 38 H 5.209242 -3.924334 -1.433219 0
M  V30 39 H 6.496097 -1.929590 -2.164209 0
M  V30 END ATOM
M  V30 BEGIN BOND
M  V30 1 2 1 2
M  V30 2 1 2 3
M  V30 3 1 3 4
M  V30 4 1 4 5
M  V30 5 1 5 6
M  V30 6 1 6 7
M  V30 7 2 7 8
M  V30 8 1 7 9
M  V30 9 1 9 10
M  V30 10 1 10 11
M  V30 11 2 11 12
M  V30 12 1 12 13
M  V30 13 2 13 14
M  V30 14 1 14 15
M  V30 15 2 15 16
M  V30 16 1 2 17
M  V30 17 2 17 18
M  V30 18 1 18 19
M  V30 19 2 19 20
M  V30 20 1 20 21
M  V30 21 2 21 22
M  V30 22 1 22 23
M  V30 23 1 10 4
M  V30 24 1 11 16
M  V30 25 1 17 22
M  V30 26 1 3 24
M  V30 27 1 4 25 CFG=1
M  V30 28 1 5 26
M  V30 29 1 5 27
M  V30 30 1 6 28
M  V30 31 1 6 29
M  V30 32 1 9 30
M  V30 33 1 10 31 CFG=1
M  V30 34 1 12 32
M  V30 35 1 13 33
M  V30 36 1 14 34
M  V30 37 1 15 35
M  V30 38 1 16 36
M  V30 39 1 18 37
M  V30 40 1 19 38
M  V30 41 1 20 39
M  V30 END BOND
M  V30 BEGIN COLLECTION
M  V30 MDLV30/STERAC1 ATOMS=(2 4 10)
M  V30 END COLLECTION
M  V30 END CTAB
M  END
>  <_CXSMILES_Data>  (1) 
|&1:3,9,r|

$$$$
