
     RDKit          3D

 45 47  0  0  0  0  0  0  0  0999 V2000
   -3.9363   -1.5450    3.1747 C   0  0  0  0  0  0  0  0  0  0  0  0
   -3.2388   -1.6560    1.8152 C   0  0  0  0  0  0  0  0  0  0  0  0
   -2.0631   -0.7756    1.7910 N   0  0  0  0  0  0  0  0  0  0  0  0
   -1.7950    0.1413    0.7166 C   0  0  0  0  0  0  0  0  0  0  0  0
   -2.7175    0.4549   -0.0847 O   0  0  0  0  0  0  0  0  0  0  0  0
   -0.4484    0.7341    0.5414 C   0  0  0  0  0  0  0  0  0  0  0  0
   -0.2981    1.9546   -0.1401 C   0  0  0  0  0  0  0  0  0  0  0  0
    0.9694    2.5158   -0.3198 C   0  0  0  0  0  0  0  0  0  0  0  0
    2.1124    1.8546    0.1608 C   0  0  0  0  0  0  0  0  0  0  0  0
    1.9649    0.6448    0.8462 C   0  0  0  0  0  0  0  0  0  0  0  0
    0.6986    0.0814    1.0281 C   0  0  0  0  0  0  0  0  0  0  0  0
    3.3990    2.3938    0.0139 O   0  0  0  0  0  0  0  0  0  0  0  0
    3.8300    3.1890   -1.0583 C   0  0  0  0  0  0  0  0  0  0  0  0
    3.3161    3.0289   -2.3587 C   0  0  0  0  0  0  0  0  0  0  0  0
    3.7852    3.8298   -3.4045 C   0  0  0  0  0  0  0  0  0  0  0  0
    4.7769    4.7866   -3.1647 C   0  0  0  0  0  0  0  0  0  0  0  0
    5.3660    5.7893   -4.4779 Cl  0  0  0  0  0  0  0  0  0  0  0  0
    5.3045    4.9364   -1.8781 C   0  0  0  0  0  0  0  0  0  0  0  0
    4.8364    4.1359   -0.8313 C   0  0  0  0  0  0  0  0  0  0  0  0
   -2.8686   -3.1280    1.4884 C   0  0  0  0  0  0  0  0  0  0  0  0
   -1.8434   -3.7658    2.4064 C   0  0  0  0  0  0  0  0  0  0  0  0
   -1.2407   -4.8716    1.5569 C   0  0  0  0  0  0  0  0  0  0  0  0
   -1.4333   -4.5248    0.1455 N   0  0  0  0  0  0  0  0  0  0  0  0
   -2.2696   -3.3224    0.1002 C   0  0  0  0  0  0  0  0  0  0  0  0
   -4.8433   -2.1861    3.1965 H   0  0  0  0  0  0  0  0  0  0  0  0
   -3.2547   -1.8551    3.9950 H   0  0  0  0  0  0  0  0  0  0  0  0
   -4.2469   -0.4934    3.3521 H   0  0  0  0  0  0  0  0  0  0  0  0
   -3.9770   -1.3248    1.0522 H   0  0  0  0  0  0  0  0  0  0  0  0
   -1.3968   -0.8137    2.5943 H   0  0  0  0  0  0  0  0  0  0  0  0
   -1.1631    2.4843   -0.5197 H   0  0  0  0  0  0  0  0  0  0  0  0
    1.0546    3.4734   -0.8164 H   0  0  0  0  0  0  0  0  0  0  0  0
    2.8383    0.1308    1.2270 H   0  0  0  0  0  0  0  0  0  0  0  0
    0.6255   -0.8751    1.5288 H   0  0  0  0  0  0  0  0  0  0  0  0
    2.5698    2.2739   -2.5684 H   0  0  0  0  0  0  0  0  0  0  0  0
    3.3827    3.7011   -4.4013 H   0  0  0  0  0  0  0  0  0  0  0  0
    6.0770    5.6706   -1.6882 H   0  0  0  0  0  0  0  0  0  0  0  0
    5.2516    4.2561    0.1613 H   0  0  0  0  0  0  0  0  0  0  0  0
   -3.7987   -3.7407    1.5385 H   0  0  0  0  0  0  0  0  0  0  0  0
   -1.0408   -3.0521    2.6861 H   0  0  0  0  0  0  0  0  0  0  0  0
   -2.3152   -4.1729    3.3272 H   0  0  0  0  0  0  0  0  0  0  0  0
   -0.1622   -5.0087    1.7965 H   0  0  0  0  0  0  0  0  0  0  0  0
   -1.7688   -5.8278    1.7619 H   0  0  0  0  0  0  0  0  0  0  0  0
   -0.5010   -4.3027   -0.2776 H   0  0  0  0  0  0  0  0  0  0  0  0
   -3.0745   -3.4548   -0.6541 H   0  0  0  0  0  0  0  0  0  0  0  0
   -1.6527   -2.4465   -0.1991 H   0  0  0  0  0  0  0  0  0  0  0  0
  1  2  1  0
  2  3  1  0
  3  4  1  0
  4  5  2  0
  4  6  1  0
  6  7  2  0
  7  8  1  0
  8  9  2  0
  9 10  1  0
 10 11  2  0
  9 12  1  0
 12 13  1  0
 13 14  2  0
 14 15  1  0
 15 16  2  0
 16 17  1  0
 16 18  1  0
 18 19  2  0
  2 20  1  0
 20 21  1  0
 21 22  1  0
 22 23  1  0
 23 24  1  0
  6 11  1  0
 13 19  1  0
 24 20  1  0
  1 25  1  0
  1 26  1  0
  1 27  1  0
  2 28  1  0
  3 29  1  0
  7 30  1  0
  8 31  1  0
 10 32  1  0
 11 33  1  0
 14 34  1  0
 15 35  1  0
 18 36  1  0
 19 37  1  0
 20 38  1  0
 21 39  1  0
 21 40  1  0
 22 41  1  0
 22 42  1  0
 23 43  1  0
 24 44  1  0
 24 45  1  0
M  END
$$$$
