
     RDKit          3D

 49 52  0  0  0  0  0  0  0  0999 V2000
   -0.7438    3.5239   -3.1729 C   0  0  0  0  0  0  0  0  0  0  0  0
   -0.4265    3.0073   -1.8111 C   0  0  0  0  0  0  0  0  0  0  0  0
   -0.2936    1.6738   -1.6040 N   0  0  0  0  0  0  0  0  0  0  0  0
   -0.0562    1.1691   -0.3652 C   0  0  0  0  0  0  0  0  0  0  0  0
    0.0203    2.0367    0.7462 C   0  0  0  0  0  0  0  0  0  0  0  0
    0.1799    1.4820    2.1430 C   0  0  0  0  0  0  0  0  0  0  0  0
   -0.0952    3.4297    0.5032 C   0  0  0  0  0  0  0  0  0  0  0  0
   -0.3326    3.8647   -0.7653 N   0  0  0  0  0  0  0  0  0  0  0  0
    0.0086    4.4077    1.5563 N   0  0  0  0  0  0  0  0  0  0  0  0
   -0.5394    5.6378    1.5397 C   0  0  0  0  0  0  0  0  0  0  0  0
   -0.1921    6.2888    2.7034 C   0  0  0  0  0  0  0  0  0  0  0  0
    0.5889    5.3831    3.3916 C   0  0  0  0  0  0  0  0  0  0  0  0
    0.7043    4.2526    2.6717 N   0  0  0  0  0  0  0  0  0  0  0  0
    0.0869   -0.2495   -0.2109 N   0  0  0  0  0  0  0  0  0  0  0  0
   -1.0991   -1.0951   -0.3978 C   0  0  0  0  0  0  0  0  0  0  0  0
   -1.0210   -1.8766   -1.7143 C   0  0  0  0  0  0  0  0  0  0  0  0
    0.2225   -2.7758   -1.8384 C   0  0  0  0  0  0  0  0  0  0  0  0
    0.7392   -3.2022   -0.5266 N   0  0  0  0  0  0  0  0  0  0  0  0
    1.4952   -2.2731    0.3395 C   0  0  0  0  0  0  0  0  0  0  0  0
    1.4499   -0.7967   -0.1060 C   0  0  0  0  0  0  0  0  0  0  0  0
    0.4176   -4.5162   -0.0102 C   0  0  0  0  0  0  0  0  0  0  0  0
    1.3559   -5.2351    0.7482 C   0  0  0  0  0  0  0  0  0  0  0  0
    1.0192   -6.4908    1.2649 C   0  0  0  0  0  0  0  0  0  0  0  0
   -0.2125   -7.0156    1.0337 N   0  0  0  0  0  0  0  0  0  0  0  0
   -1.1437   -6.3475    0.3084 C   0  0  0  0  0  0  0  0  0  0  0  0
   -0.8447   -5.0960   -0.2365 C   0  0  0  0  0  0  0  0  0  0  0  0
   -1.8433    3.6138   -3.2841 H   0  0  0  0  0  0  0  0  0  0  0  0
   -0.2796    4.5193   -3.3208 H   0  0  0  0  0  0  0  0  0  0  0  0
   -0.3539    2.8297   -3.9467 H   0  0  0  0  0  0  0  0  0  0  0  0
    1.2271    1.6281    2.4854 H   0  0  0  0  0  0  0  0  0  0  0  0
   -0.5211    1.9877    2.8403 H   0  0  0  0  0  0  0  0  0  0  0  0
   -0.0565    0.3981    2.1969 H   0  0  0  0  0  0  0  0  0  0  0  0
   -1.1376    6.0410    0.7375 H   0  0  0  0  0  0  0  0  0  0  0  0
   -0.4708    7.2865    3.0129 H   0  0  0  0  0  0  0  0  0  0  0  0
    1.0535    5.5434    4.3557 H   0  0  0  0  0  0  0  0  0  0  0  0
   -1.2079   -1.7930    0.4632 H   0  0  0  0  0  0  0  0  0  0  0  0
   -2.0234   -0.4704   -0.4081 H   0  0  0  0  0  0  0  0  0  0  0  0
   -1.0338   -1.1608   -2.5611 H   0  0  0  0  0  0  0  0  0  0  0  0
   -1.9348   -2.4980   -1.8070 H   0  0  0  0  0  0  0  0  0  0  0  0
    1.0182   -2.2391   -2.3953 H   0  0  0  0  0  0  0  0  0  0  0  0
   -0.0235   -3.6599   -2.4662 H   0  0  0  0  0  0  0  0  0  0  0  0
    1.0959   -2.3298    1.3771 H   0  0  0  0  0  0  0  0  0  0  0  0
    2.5598   -2.5904    0.3674 H   0  0  0  0  0  0  0  0  0  0  0  0
    2.0207   -0.2068    0.6444 H   0  0  0  0  0  0  0  0  0  0  0  0
    1.9794   -0.6653   -1.0733 H   0  0  0  0  0  0  0  0  0  0  0  0
    2.3433   -4.8367    0.9402 H   0  0  0  0  0  0  0  0  0  0  0  0
    1.7379   -7.0463    1.8493 H   0  0  0  0  0  0  0  0  0  0  0  0
   -2.1154   -6.7947    0.1358 H   0  0  0  0  0  0  0  0  0  0  0  0
   -1.6064   -4.5778   -0.7990 H   0  0  0  0  0  0  0  0  0  0  0  0
  1  2  1  0
  2  3  2  0
  3  4  1  0
  4  5  2  0
  5  6  1  0
  5  7  1  0
  7  8  2  0
  7  9  1  0
  9 10  1  0
 10 11  2  0
 11 12  1  0
 12 13  2  0
  4 14  1  0
 14 15  1  0
 15 16  1  0
 16 17  1  0
 17 18  1  0
 18 19  1  0
 19 20  1  0
 18 21  1  0
 21 22  2  0
 22 23  1  0
 23 24  2  0
 24 25  1  0
 25 26  2  0
  8  2  1  0
 13  9  1  0
 20 14  1  0
 21 26  1  0
  1 27  1  0
  1 28  1  0
  1 29  1  0
  6 30  1  0
  6 31  1  0
  6 32  1  0
 10 33  1  0
 11 34  1  0
 12 35  1  0
 15 36  1  0
 15 37  1  0
 16 38  1  0
 16 39  1  0
 17 40  1  0
 17 41  1  0
 19 42  1  0
 19 43  1  0
 20 44  1  0
 20 45  1  0
 22 46  1  0
 23 47  1  0
 25 48  1  0
 26 49  1  0
M  END
$$$$
