
     RDKit          3D

 44 47  0  0  0  0  0  0  0  0999 V2000
   -0.1670   -4.8191    0.5242 C   0  0  0  0  0  0  0  0  0  0  0  0
    0.8804   -3.9400   -0.1565 C   0  0  0  0  0  0  0  0  0  0  0  0
    0.2627   -2.9953   -1.1930 C   0  0  0  0  0  0  0  0  0  0  0  0
   -0.5880   -1.9938   -0.5496 N   0  0  0  0  0  0  0  0  0  0  0  0
   -0.1093   -0.9077    0.0488 N   0  0  0  0  0  0  0  0  0  0  0  0
   -1.1606   -0.2074    0.5375 C   0  0  0  0  0  0  0  0  0  0  0  0
   -1.0519    1.0629    1.1948 N   0  0  0  0  0  0  0  0  0  0  0  0
    0.2380    1.6982    1.4613 C   0  0  0  0  0  0  0  0  0  0  0  0
    0.9946    1.9267    0.1899 C   0  0  0  0  0  0  0  0  0  0  0  0
    0.4226    2.2614   -0.9833 N   0  0  0  0  0  0  0  0  0  0  0  0
    1.4999    2.3079   -1.7943 C   0  0  0  0  0  0  0  0  0  0  0  0
    1.4127    2.5285   -3.2697 C   0  0  0  0  0  0  0  0  0  0  0  0
    0.6998    1.3395   -3.9270 C   0  0  0  0  0  0  0  0  0  0  0  0
    1.1948    0.9505   -5.3122 C   0  0  0  0  0  0  0  0  0  0  0  0
    1.5558    0.0937   -4.1078 C   0  0  0  0  0  0  0  0  0  0  0  0
    2.6488    2.0252   -1.1502 N   0  0  0  0  0  0  0  0  0  0  0  0
    2.2938    1.8030    0.0779 O   0  0  0  0  0  0  0  0  0  0  0  0
   -2.3306   -0.8737    0.2407 C   0  0  0  0  0  0  0  0  0  0  0  0
   -3.6710   -0.5948    0.4998 C   0  0  0  0  0  0  0  0  0  0  0  0
   -4.6273   -1.5197    0.0412 C   0  0  0  0  0  0  0  0  0  0  0  0
   -4.2248   -2.6814   -0.6569 C   0  0  0  0  0  0  0  0  0  0  0  0
   -2.8614   -2.9300   -0.9064 C   0  0  0  0  0  0  0  0  0  0  0  0
   -1.9345   -1.9939   -0.4393 C   0  0  0  0  0  0  0  0  0  0  0  0
   -0.8689   -4.1988    1.1202 H   0  0  0  0  0  0  0  0  0  0  0  0
   -0.7373   -5.3980   -0.2327 H   0  0  0  0  0  0  0  0  0  0  0  0
    0.3367   -5.5325    1.2094 H   0  0  0  0  0  0  0  0  0  0  0  0
    1.4244   -3.3495    0.6125 H   0  0  0  0  0  0  0  0  0  0  0  0
    1.6174   -4.5969   -0.6674 H   0  0  0  0  0  0  0  0  0  0  0  0
   -0.3068   -3.5717   -1.9523 H   0  0  0  0  0  0  0  0  0  0  0  0
    1.0832   -2.4740   -1.7327 H   0  0  0  0  0  0  0  0  0  0  0  0
   -1.9215    1.5560    1.4977 H   0  0  0  0  0  0  0  0  0  0  0  0
    0.0767    2.6749    1.9648 H   0  0  0  0  0  0  0  0  0  0  0  0
    0.8346    1.0493    2.1379 H   0  0  0  0  0  0  0  0  0  0  0  0
    2.4350    2.6819   -3.6813 H   0  0  0  0  0  0  0  0  0  0  0  0
    0.8246    3.4498   -3.4650 H   0  0  0  0  0  0  0  0  0  0  0  0
   -0.3761    1.1467   -3.7212 H   0  0  0  0  0  0  0  0  0  0  0  0
    2.0451    1.5407   -5.7179 H   0  0  0  0  0  0  0  0  0  0  0  0
    0.4164    0.5032   -5.9661 H   0  0  0  0  0  0  0  0  0  0  0  0
    2.6200    0.1813   -3.7999 H   0  0  0  0  0  0  0  0  0  0  0  0
    0.9935   -0.8627   -4.0462 H   0  0  0  0  0  0  0  0  0  0  0  0
   -3.9708    0.2954    1.0371 H   0  0  0  0  0  0  0  0  0  0  0  0
   -5.6789   -1.3409    0.2256 H   0  0  0  0  0  0  0  0  0  0  0  0
   -4.9707   -3.3858   -1.0026 H   0  0  0  0  0  0  0  0  0  0  0  0
   -2.5556   -3.8203   -1.4386 H   0  0  0  0  0  0  0  0  0  0  0  0
  1  2  1  0
  2  3  1  0
  3  4  1  0
  4  5  1  0
  5  6  2  0
  6  7  1  0
  7  8  1  0
  8  9  1  0
  9 10  2  0
 10 11  1  0
 11 12  1  0
 12 13  1  0
 13 14  1  0
 14 15  1  0
 11 16  2  0
 16 17  1  0
  6 18  1  0
 18 19  2  0
 19 20  1  0
 20 21  2  0
 21 22  1  0
 22 23  2  0
 23  4  1  0
 17  9  1  0
 15 13  1  0
 18 23  1  0
  1 24  1  0
  1 25  1  0
  1 26  1  0
  2 27  1  0
  2 28  1  0
  3 29  1  0
  3 30  1  0
  7 31  1  0
  8 32  1  0
  8 33  1  0
 12 34  1  0
 12 35  1  0
 13 36  1  0
 14 37  1  0
 14 38  1  0
 15 39  1  0
 15 40  1  0
 19 41  1  0
 20 42  1  0
 21 43  1  0
 22 44  1  0
M  END
$$$$
