
     RDKit          3D

 40 42  0  0  0  0  0  0  0  0999 V2000
    0.9471   -2.4483   -1.4192 O   0  0  0  0  0  0  0  0  0  0  0  0
    0.8083   -1.2024   -1.5621 C   0  0  0  0  0  0  0  0  0  0  0  0
    1.9611   -0.3457   -1.4964 N   0  0  0  0  0  0  0  0  0  0  0  0
    3.1895   -0.7084   -0.8420 C   0  0  0  0  0  0  0  0  0  0  0  0
    3.1992   -1.5436    0.2891 C   0  0  0  0  0  0  0  0  0  0  0  0
    4.4040   -1.8639    0.9225 C   0  0  0  0  0  0  0  0  0  0  0  0
    5.6200   -1.3422    0.4420 C   0  0  0  0  0  0  0  0  0  0  0  0
    5.6050   -0.4964   -0.6725 C   0  0  0  0  0  0  0  0  0  0  0  0
    4.4009   -0.1751   -1.3052 C   0  0  0  0  0  0  0  0  0  0  0  0
    6.8562   -1.6346    1.0388 O   0  0  0  0  0  0  0  0  0  0  0  0
    7.0275   -2.4540    2.1917 C   0  0  0  0  0  0  0  0  0  0  0  0
    6.4292   -1.8582    3.2873 F   0  0  0  0  0  0  0  0  0  0  0  0
    8.3776   -2.6029    2.4433 F   0  0  0  0  0  0  0  0  0  0  0  0
   -0.5372   -0.6465   -1.8466 C   0  0  0  0  0  0  0  0  0  0  0  0
   -0.8146    0.7172   -1.6435 C   0  0  0  0  0  0  0  0  0  0  0  0
   -2.0880    1.2292   -1.9083 C   0  0  0  0  0  0  0  0  0  0  0  0
   -3.1143    0.3887   -2.3595 C   0  0  0  0  0  0  0  0  0  0  0  0
   -2.8376   -0.9711   -2.5779 C   0  0  0  0  0  0  0  0  0  0  0  0
   -1.5648   -1.4851   -2.3137 C   0  0  0  0  0  0  0  0  0  0  0  0
   -4.4080    0.9463   -2.6467 N   0  0  0  0  0  0  0  0  0  0  0  0
   -5.6493    0.2611   -2.4265 C   0  0  0  0  0  0  0  0  0  0  0  0
   -5.6974   -0.8728   -1.6737 N   0  0  0  0  0  0  0  0  0  0  0  0
   -6.8740   -1.5089   -1.4378 C   0  0  0  0  0  0  0  0  0  0  0  0
   -8.0588   -0.9951   -1.9620 C   0  0  0  0  0  0  0  0  0  0  0  0
   -7.9971    0.1738   -2.7190 C   0  0  0  0  0  0  0  0  0  0  0  0
   -6.8005    0.7802   -2.9328 N   0  0  0  0  0  0  0  0  0  0  0  0
    1.9464    0.5403   -2.0503 H   0  0  0  0  0  0  0  0  0  0  0  0
    2.2759   -1.9314    0.6984 H   0  0  0  0  0  0  0  0  0  0  0  0
    4.3764   -2.5117    1.7876 H   0  0  0  0  0  0  0  0  0  0  0  0
    6.5324   -0.0837   -1.0492 H   0  0  0  0  0  0  0  0  0  0  0  0
    4.4127    0.4836   -2.1646 H   0  0  0  0  0  0  0  0  0  0  0  0
    6.5858   -3.4580    2.0181 H   0  0  0  0  0  0  0  0  0  0  0  0
   -0.0568    1.3895   -1.2633 H   0  0  0  0  0  0  0  0  0  0  0  0
   -2.2808    2.2824   -1.7461 H   0  0  0  0  0  0  0  0  0  0  0  0
   -3.5953   -1.6326   -2.9765 H   0  0  0  0  0  0  0  0  0  0  0  0
   -1.3803   -2.5372   -2.4925 H   0  0  0  0  0  0  0  0  0  0  0  0
   -4.4562    1.9424   -2.9599 H   0  0  0  0  0  0  0  0  0  0  0  0
   -6.8889   -2.4111   -0.8410 H   0  0  0  0  0  0  0  0  0  0  0  0
   -9.0046   -1.4894   -1.7820 H   0  0  0  0  0  0  0  0  0  0  0  0
   -8.8999    0.6010   -3.1345 H   0  0  0  0  0  0  0  0  0  0  0  0
  1  2  2  0
  2  3  1  0
  3  4  1  0
  4  5  2  0
  5  6  1  0
  6  7  2  0
  7  8  1  0
  8  9  2  0
  7 10  1  0
 10 11  1  0
 11 12  1  0
 11 13  1  0
  2 14  1  0
 14 15  2  0
 15 16  1  0
 16 17  2  0
 17 18  1  0
 18 19  2  0
 17 20  1  0
 20 21  1  0
 21 22  2  0
 22 23  1  0
 23 24  2  0
 24 25  1  0
 25 26  2  0
  4  9  1  0
 14 19  1  0
 21 26  1  0
  3 27  1  0
  5 28  1  0
  6 29  1  0
  8 30  1  0
  9 31  1  0
 11 32  1  0
 15 33  1  0
 16 34  1  0
 18 35  1  0
 19 36  1  0
 20 37  1  0
 23 38  1  0
 24 39  1  0
 25 40  1  0
M  END
$$$$
