
     RDKit          3D

 42 45  0  0  0  0  0  0  0  0999 V2000
   -1.7926   -1.4451    0.5854 O   0  0  0  0  0  0  0  0  0  0  0  0
   -0.5580   -1.1967    0.6378 C   0  0  0  0  0  0  0  0  0  0  0  0
    0.3807   -2.3040    0.9020 C   0  0  0  0  0  0  0  0  0  0  0  0
    1.4344   -2.2723    1.7926 C   0  0  0  0  0  0  0  0  0  0  0  0
    1.9717   -3.5019    1.8611 N   0  0  0  0  0  0  0  0  0  0  0  0
    1.3153   -4.3237    1.0586 N   0  0  0  0  0  0  0  0  0  0  0  0
    0.3340   -3.6212    0.4568 C   0  0  0  0  0  0  0  0  0  0  0  0
   -0.5588   -4.2102   -0.5584 C   0  0  0  0  0  0  0  0  0  0  0  0
   -0.7425   -5.5753   -0.7626 C   0  0  0  0  0  0  0  0  0  0  0  0
   -1.5873   -5.8696   -1.8395 C   0  0  0  0  0  0  0  0  0  0  0  0
   -2.0542   -4.7380   -2.4901 C   0  0  0  0  0  0  0  0  0  0  0  0
   -3.1147   -4.7223   -3.8830 Cl  0  0  0  0  0  0  0  0  0  0  0  0
   -1.4229   -3.3745   -1.7410 S   0  0  0  0  0  0  0  0  0  0  0  0
   -0.0958    0.1612    0.4867 N   0  0  0  0  0  0  0  0  0  0  0  0
   -0.9031    1.2712    1.0044 C   0  0  0  0  0  0  0  0  0  0  0  0
   -0.7985    2.4985    0.0831 C   0  0  0  0  0  0  0  0  0  0  0  0
    0.5956    2.8257   -0.2919 N   0  0  0  0  0  0  0  0  0  0  0  0
    1.3723    3.4463    0.8042 C   0  0  0  0  0  0  0  0  0  0  0  0
    1.0131    4.9348    0.9242 C   0  0  0  0  0  0  0  0  0  0  0  0
    2.1327    5.8435    1.4102 C   0  0  0  0  0  0  0  0  0  0  0  0
    1.7260    5.8538   -0.0559 C   0  0  0  0  0  0  0  0  0  0  0  0
    1.2764    1.6595   -0.8896 C   0  0  0  0  0  0  0  0  0  0  0  0
    1.2737    0.4493    0.0489 C   0  0  0  0  0  0  0  0  0  0  0  0
    1.7620   -1.4259    2.3818 H   0  0  0  0  0  0  0  0  0  0  0  0
    2.7773   -3.7864    2.4607 H   0  0  0  0  0  0  0  0  0  0  0  0
   -0.2774   -6.3398   -0.1538 H   0  0  0  0  0  0  0  0  0  0  0  0
   -1.8417   -6.8779   -2.1381 H   0  0  0  0  0  0  0  0  0  0  0  0
   -0.5633    1.5232    2.0304 H   0  0  0  0  0  0  0  0  0  0  0  0
   -1.9743    0.9848    1.0773 H   0  0  0  0  0  0  0  0  0  0  0  0
   -1.2875    3.3672    0.5724 H   0  0  0  0  0  0  0  0  0  0  0  0
   -1.3783    2.2957   -0.8439 H   0  0  0  0  0  0  0  0  0  0  0  0
    2.4646    3.3348    0.6175 H   0  0  0  0  0  0  0  0  0  0  0  0
    1.1723    2.9531    1.7774 H   0  0  0  0  0  0  0  0  0  0  0  0
   -0.0089    5.2502    1.2230 H   0  0  0  0  0  0  0  0  0  0  0  0
    1.7902    6.7361    1.9752 H   0  0  0  0  0  0  0  0  0  0  0  0
    3.1160    5.3629    1.6013 H   0  0  0  0  0  0  0  0  0  0  0  0
    1.1396    6.7479   -0.3555 H   0  0  0  0  0  0  0  0  0  0  0  0
    2.4611    5.3692   -0.7339 H   0  0  0  0  0  0  0  0  0  0  0  0
    0.7595    1.3830   -1.8350 H   0  0  0  0  0  0  0  0  0  0  0  0
    2.3214    1.9174   -1.1690 H   0  0  0  0  0  0  0  0  0  0  0  0
    1.7017   -0.4159   -0.5025 H   0  0  0  0  0  0  0  0  0  0  0  0
    1.9131    0.6516    0.9343 H   0  0  0  0  0  0  0  0  0  0  0  0
  1  2  2  0
  2  3  1  0
  3  4  2  0
  4  5  1  0
  5  6  1  0
  6  7  2  0
  7  8  1  0
  8  9  2  0
  9 10  1  0
 10 11  2  0
 11 12  1  0
 11 13  1  0
  2 14  1  0
 14 15  1  0
 15 16  1  0
 16 17  1  0
 17 18  1  0
 18 19  1  0
 19 20  1  0
 20 21  1  0
 17 22  1  0
 22 23  1  0
  7  3  1  0
 13  8  1  0
 23 14  1  0
 21 19  1  0
  4 24  1  0
  5 25  1  0
  9 26  1  0
 10 27  1  0
 15 28  1  0
 15 29  1  0
 16 30  1  0
 16 31  1  0
 18 32  1  0
 18 33  1  0
 19 34  1  0
 20 35  1  0
 20 36  1  0
 21 37  1  0
 21 38  1  0
 22 39  1  0
 22 40  1  0
 23 41  1  0
 23 42  1  0
M  END
$$$$
