
     RDKit          3D

 46 47  0  0  0  0  0  0  0  0999 V2000
   -0.4244    3.8230    3.0749 C   0  0  0  0  0  0  0  0  0  0  0  0
    0.8330    3.0027    2.8363 C   0  0  0  0  0  0  0  0  0  0  0  0
    0.6968    2.2631    1.6275 O   0  0  0  0  0  0  0  0  0  0  0  0
    1.6973    1.4149    1.1427 C   0  0  0  0  0  0  0  0  0  0  0  0
    2.7793    1.2844    1.7760 O   0  0  0  0  0  0  0  0  0  0  0  0
    1.4663    0.6747   -0.1131 C   0  0  0  0  0  0  0  0  0  0  0  0
    0.3020    0.7571   -0.8558 C   0  0  0  0  0  0  0  0  0  0  0  0
    0.4652   -0.1100   -1.9156 C   0  0  0  0  0  0  0  0  0  0  0  0
    1.7127   -0.6830   -1.7939 C   0  0  0  0  0  0  0  0  0  0  0  0
    2.3228   -0.2022   -0.6926 N   0  0  0  0  0  0  0  0  0  0  0  0
    3.6418   -0.6129   -0.2176 C   0  0  0  0  0  0  0  0  0  0  0  0
   -0.7415   -0.5035   -3.1282 S   0  0  0  0  0  0  0  0  0  0  0  0
   -1.4960    0.7323   -3.5304 O   0  0  0  0  0  0  0  0  0  0  0  0
   -0.0452   -1.0561   -4.3400 O   0  0  0  0  0  0  0  0  0  0  0  0
   -1.8338   -1.7000   -2.5064 N   0  0  0  0  0  0  0  0  0  0  0  0
   -2.3902   -1.6063   -1.1846 C   0  0  0  0  0  0  0  0  0  0  0  0
   -2.8929   -0.3749   -0.7292 C   0  0  0  0  0  0  0  0  0  0  0  0
   -3.4088   -0.2478    0.5607 C   0  0  0  0  0  0  0  0  0  0  0  0
   -3.4376   -1.3495    1.4129 C   0  0  0  0  0  0  0  0  0  0  0  0
   -3.9318   -1.2215    2.6691 F   0  0  0  0  0  0  0  0  0  0  0  0
   -2.9596   -2.5847    0.9738 C   0  0  0  0  0  0  0  0  0  0  0  0
   -2.4444   -2.7357   -0.3273 C   0  0  0  0  0  0  0  0  0  0  0  0
   -1.8939   -4.0837   -0.7316 C   0  0  0  0  0  0  0  0  0  0  0  0
   -0.1061   -4.1153   -0.6546 S   0  0  0  0  0  0  0  0  0  0  0  0
    0.5066   -3.1215    0.6916 C   0  0  0  0  0  0  0  0  0  0  0  0
    0.4622   -3.6051   -1.9477 O   0  0  0  0  0  0  0  0  0  0  0  0
    0.3453   -5.5339   -0.4524 O   0  0  0  0  0  0  0  0  0  0  0  0
   -0.5824    4.5279    2.2311 H   0  0  0  0  0  0  0  0  0  0  0  0
   -0.3213    4.4039    4.0159 H   0  0  0  0  0  0  0  0  0  0  0  0
   -1.3050    3.1513    3.1591 H   0  0  0  0  0  0  0  0  0  0  0  0
    1.7081    3.6843    2.7630 H   0  0  0  0  0  0  0  0  0  0  0  0
    0.9831    2.3046    3.6883 H   0  0  0  0  0  0  0  0  0  0  0  0
   -0.5704    1.3581   -0.6363 H   0  0  0  0  0  0  0  0  0  0  0  0
    2.1376   -1.4258   -2.4568 H   0  0  0  0  0  0  0  0  0  0  0  0
    3.5492   -1.0915    0.7801 H   0  0  0  0  0  0  0  0  0  0  0  0
    4.0992   -1.3456   -0.9169 H   0  0  0  0  0  0  0  0  0  0  0  0
    4.3100    0.2713   -0.1514 H   0  0  0  0  0  0  0  0  0  0  0  0
   -1.9450   -2.5752   -3.0626 H   0  0  0  0  0  0  0  0  0  0  0  0
   -2.8932    0.4917   -1.3748 H   0  0  0  0  0  0  0  0  0  0  0  0
   -3.7861    0.7086    0.8989 H   0  0  0  0  0  0  0  0  0  0  0  0
   -2.9841   -3.4262    1.6553 H   0  0  0  0  0  0  0  0  0  0  0  0
   -2.2818   -4.8765   -0.0565 H   0  0  0  0  0  0  0  0  0  0  0  0
   -2.2311   -4.3603   -1.7507 H   0  0  0  0  0  0  0  0  0  0  0  0
    1.6136   -3.1846    0.7253 H   0  0  0  0  0  0  0  0  0  0  0  0
    0.0863   -3.4926    1.6486 H   0  0  0  0  0  0  0  0  0  0  0  0
    0.2071   -2.0637    0.5463 H   0  0  0  0  0  0  0  0  0  0  0  0
  1  2  1  0
  2  3  1  0
  3  4  1  0
  4  5  2  0
  4  6  1  0
  6  7  2  0
  7  8  1  0
  8  9  2  0
  9 10  1  0
 10 11  1  0
  8 12  1  0
 12 13  2  0
 12 14  2  0
 12 15  1  0
 15 16  1  0
 16 17  2  0
 17 18  1  0
 18 19  2  0
 19 20  1  0
 19 21  1  0
 21 22  2  0
 22 23  1  0
 23 24  1  0
 24 25  1  0
 24 26  2  0
 24 27  2  0
 10  6  1  0
 16 22  1  0
  1 28  1  0
  1 29  1  0
  1 30  1  0
  2 31  1  0
  2 32  1  0
  7 33  1  0
  9 34  1  0
 11 35  1  0
 11 36  1  0
 11 37  1  0
 15 38  1  0
 17 39  1  0
 18 40  1  0
 21 41  1  0
 23 42  1  0
 23 43  1  0
 25 44  1  0
 25 45  1  0
 25 46  1  0
M  END
$$$$
