
     RDKit          3D

 50 53  0  0  0  0  0  0  0  0999 V2000
   -1.3687    0.9326    7.0216 C   0  0  0  0  0  0  0  0  0  0  0  0
   -0.7791    2.0551    6.2223 C   0  0  0  0  0  0  0  0  0  0  0  0
   -0.2137    3.1661    6.8688 C   0  0  0  0  0  0  0  0  0  0  0  0
    0.2885    4.2318    6.1193 C   0  0  0  0  0  0  0  0  0  0  0  0
    0.2312    4.1952    4.7222 C   0  0  0  0  0  0  0  0  0  0  0  0
   -0.3264    3.0944    4.0612 C   0  0  0  0  0  0  0  0  0  0  0  0
   -0.8562    2.0348    4.8190 C   0  0  0  0  0  0  0  0  0  0  0  0
   -0.3876    3.1140    2.6582 O   0  0  0  0  0  0  0  0  0  0  0  0
   -0.4110    1.9858    1.8243 C   0  0  0  0  0  0  0  0  0  0  0  0
    0.2523    0.7943    2.1510 C   0  0  0  0  0  0  0  0  0  0  0  0
    0.2028   -0.2970    1.2805 C   0  0  0  0  0  0  0  0  0  0  0  0
   -0.5069   -0.1880    0.0745 C   0  0  0  0  0  0  0  0  0  0  0  0
   -1.1199    0.9883   -0.2303 N   0  0  0  0  0  0  0  0  0  0  0  0
   -1.0811    2.0643    0.5998 C   0  0  0  0  0  0  0  0  0  0  0  0
   -0.5876   -1.3210   -0.8727 C   0  0  0  0  0  0  0  0  0  0  0  0
    0.0891   -2.3643   -0.6601 O   0  0  0  0  0  0  0  0  0  0  0  0
   -1.4671   -1.2511   -2.0098 N   0  0  0  0  0  0  0  0  0  0  0  0
   -1.4008   -2.1385   -3.1405 C   0  0  0  0  0  0  0  0  0  0  0  0
   -2.5724   -2.4241   -3.8559 C   0  0  0  0  0  0  0  0  0  0  0  0
   -2.5329   -3.2569   -4.9766 C   0  0  0  0  0  0  0  0  0  0  0  0
   -1.3199   -3.8001   -5.4052 C   0  0  0  0  0  0  0  0  0  0  0  0
   -0.1289   -3.4998   -4.7250 C   0  0  0  0  0  0  0  0  0  0  0  0
   -0.1774   -2.6716   -3.5879 C   0  0  0  0  0  0  0  0  0  0  0  0
    1.1785   -4.0989   -5.1950 C   0  0  0  0  0  0  0  0  0  0  0  0
    1.6543   -5.2537   -4.2801 C   0  0  0  0  0  0  0  0  0  0  0  0
    3.1514   -5.0263   -4.0229 C   0  0  0  0  0  0  0  0  0  0  0  0
    3.3726   -3.6560   -4.5260 C   0  0  0  0  0  0  0  0  0  0  0  0
    4.4621   -3.0340   -4.4183 O   0  0  0  0  0  0  0  0  0  0  0  0
    2.2445   -3.1134   -5.1745 N   0  0  0  0  0  0  0  0  0  0  0  0
   -0.9234    0.8905    8.0376 H   0  0  0  0  0  0  0  0  0  0  0  0
   -1.1752   -0.0396    6.5202 H   0  0  0  0  0  0  0  0  0  0  0  0
   -2.4644    1.0799    7.1145 H   0  0  0  0  0  0  0  0  0  0  0  0
   -0.1686    3.2117    7.9516 H   0  0  0  0  0  0  0  0  0  0  0  0
    0.7223    5.0878    6.6220 H   0  0  0  0  0  0  0  0  0  0  0  0
    0.6221    5.0279    4.1496 H   0  0  0  0  0  0  0  0  0  0  0  0
   -1.3474    1.2057    4.3244 H   0  0  0  0  0  0  0  0  0  0  0  0
    0.8184    0.7111    3.0688 H   0  0  0  0  0  0  0  0  0  0  0  0
    0.7134   -1.2147    1.5481 H   0  0  0  0  0  0  0  0  0  0  0  0
   -1.5785    2.9800    0.3121 H   0  0  0  0  0  0  0  0  0  0  0  0
   -2.2507   -0.5586   -1.9839 H   0  0  0  0  0  0  0  0  0  0  0  0
   -3.5197   -2.0055   -3.5391 H   0  0  0  0  0  0  0  0  0  0  0  0
   -3.4430   -3.4809   -5.5134 H   0  0  0  0  0  0  0  0  0  0  0  0
   -1.3089   -4.4481   -6.2735 H   0  0  0  0  0  0  0  0  0  0  0  0
    0.7430   -2.4233   -3.0746 H   0  0  0  0  0  0  0  0  0  0  0  0
    1.0821   -4.4782   -6.2386 H   0  0  0  0  0  0  0  0  0  0  0  0
    1.1144   -5.2464   -3.3083 H   0  0  0  0  0  0  0  0  0  0  0  0
    1.4851   -6.2392   -4.7654 H   0  0  0  0  0  0  0  0  0  0  0  0
    3.7671   -5.7419   -4.6088 H   0  0  0  0  0  0  0  0  0  0  0  0
    3.3944   -5.0953   -2.9400 H   0  0  0  0  0  0  0  0  0  0  0  0
    2.2331   -2.2048   -5.6894 H   0  0  0  0  0  0  0  0  0  0  0  0
  1  2  1  0
  2  3  2  0
  3  4  1  0
  4  5  2  0
  5  6  1  0
  6  7  2  0
  6  8  1  0
  8  9  1  0
  9 10  2  0
 10 11  1  0
 11 12  2  0
 12 13  1  0
 13 14  2  0
 12 15  1  0
 15 16  2  0
 15 17  1  0
 17 18  1  0
 18 19  2  0
 19 20  1  0
 20 21  2  0
 21 22  1  0
 22 23  2  0
 22 24  1  0
 24 25  1  0
 25 26  1  0
 26 27  1  0
 27 28  2  0
 27 29  1  0
  2  7  1  0
  9 14  1  0
 18 23  1  0
 29 24  1  0
  1 30  1  0
  1 31  1  0
  1 32  1  0
  3 33  1  0
  4 34  1  0
  5 35  1  0
  7 36  1  0
 10 37  1  0
 11 38  1  0
 14 39  1  0
 17 40  1  0
 19 41  1  0
 20 42  1  0
 21 43  1  0
 23 44  1  0
 24 45  1  0
 25 46  1  0
 25 47  1  0
 26 48  1  0
 26 49  1  0
 29 50  1  0
M  END
$$$$
