
     RDKit          3D

 40 42  0  0  0  0  0  0  0  0999 V2000
   -1.4818    2.1702    1.6169 O   0  0  0  0  0  0  0  0  0  0  0  0
   -0.9001    1.4866    0.7302 C   0  0  0  0  0  0  0  0  0  0  0  0
   -0.8807    0.0526    0.8345 N   0  0  0  0  0  0  0  0  0  0  0  0
   -1.0683   -0.6612    2.0690 C   0  0  0  0  0  0  0  0  0  0  0  0
   -1.6482   -1.9377    2.0437 C   0  0  0  0  0  0  0  0  0  0  0  0
   -1.8225   -2.6582    3.2269 C   0  0  0  0  0  0  0  0  0  0  0  0
   -1.4073   -2.1167    4.4450 C   0  0  0  0  0  0  0  0  0  0  0  0
   -0.8058   -0.8542    4.4928 C   0  0  0  0  0  0  0  0  0  0  0  0
   -0.6303   -0.1297    3.2967 C   0  0  0  0  0  0  0  0  0  0  0  0
   -0.3939   -0.3623    5.7413 O   0  0  0  0  0  0  0  0  0  0  0  0
    0.2042    0.9130    5.9558 C   0  0  0  0  0  0  0  0  0  0  0  0
    0.5505    1.0309    7.2878 F   0  0  0  0  0  0  0  0  0  0  0  0
   -0.6931    1.9155    5.6343 F   0  0  0  0  0  0  0  0  0  0  0  0
   -0.2899    2.1705   -0.4357 C   0  0  0  0  0  0  0  0  0  0  0  0
   -0.6584    3.4892   -0.7555 C   0  0  0  0  0  0  0  0  0  0  0  0
   -0.0740    4.1434   -1.8420 C   0  0  0  0  0  0  0  0  0  0  0  0
    0.8797    3.4905   -2.6246 C   0  0  0  0  0  0  0  0  0  0  0  0
    1.2526    2.1714   -2.3340 C   0  0  0  0  0  0  0  0  0  0  0  0
    0.6829    1.5252   -1.2218 C   0  0  0  0  0  0  0  0  0  0  0  0
    2.2575    1.5298   -3.1376 N   0  0  0  0  0  0  0  0  0  0  0  0
    2.2632    0.1304   -3.4550 C   0  0  0  0  0  0  0  0  0  0  0  0
    1.1621   -0.6404   -3.2346 N   0  0  0  0  0  0  0  0  0  0  0  0
    1.1530   -1.9596   -3.5571 C   0  0  0  0  0  0  0  0  0  0  0  0
    2.2808   -2.5414   -4.1335 C   0  0  0  0  0  0  0  0  0  0  0  0
    3.3958   -1.7380   -4.3669 C   0  0  0  0  0  0  0  0  0  0  0  0
    3.3658   -0.4225   -4.0291 N   0  0  0  0  0  0  0  0  0  0  0  0
   -0.8405   -0.5031   -0.0497 H   0  0  0  0  0  0  0  0  0  0  0  0
   -1.9741   -2.3702    1.1059 H   0  0  0  0  0  0  0  0  0  0  0  0
   -2.2794   -3.6391    3.1997 H   0  0  0  0  0  0  0  0  0  0  0  0
   -1.5469   -2.6837    5.3568 H   0  0  0  0  0  0  0  0  0  0  0  0
   -0.1347    0.8299    3.3124 H   0  0  0  0  0  0  0  0  0  0  0  0
    1.1226    1.0146    5.3401 H   0  0  0  0  0  0  0  0  0  0  0  0
   -1.4002    4.0146   -0.1668 H   0  0  0  0  0  0  0  0  0  0  0  0
   -0.3618    5.1597   -2.0786 H   0  0  0  0  0  0  0  0  0  0  0  0
    1.3245    4.0099   -3.4643 H   0  0  0  0  0  0  0  0  0  0  0  0
    1.0302    0.5388   -0.9465 H   0  0  0  0  0  0  0  0  0  0  0  0
    2.9865    2.1295   -3.5868 H   0  0  0  0  0  0  0  0  0  0  0  0
    0.2695   -2.5545   -3.3685 H   0  0  0  0  0  0  0  0  0  0  0  0
    2.2890   -3.5910   -4.3975 H   0  0  0  0  0  0  0  0  0  0  0  0
    4.2843   -2.1586   -4.8184 H   0  0  0  0  0  0  0  0  0  0  0  0
  1  2  2  0
  2  3  1  0
  3  4  1  0
  4  5  2  0
  5  6  1  0
  6  7  2  0
  7  8  1  0
  8  9  2  0
  8 10  1  0
 10 11  1  0
 11 12  1  0
 11 13  1  0
  2 14  1  0
 14 15  2  0
 15 16  1  0
 16 17  2  0
 17 18  1  0
 18 19  2  0
 18 20  1  0
 20 21  1  0
 21 22  2  0
 22 23  1  0
 23 24  2  0
 24 25  1  0
 25 26  2  0
  4  9  1  0
 14 19  1  0
 21 26  1  0
  3 27  1  0
  5 28  1  0
  6 29  1  0
  7 30  1  0
  9 31  1  0
 11 32  1  0
 15 33  1  0
 16 34  1  0
 17 35  1  0
 19 36  1  0
 20 37  1  0
 23 38  1  0
 24 39  1  0
 25 40  1  0
M  END
$$$$
