
     RDKit          3D

 44 47  0  0  0  0  0  0  0  0999 V2000
   -4.2322   -1.2509   -0.6699 C   0  0  0  0  0  0  0  0  0  0  0  0
   -3.0512   -0.6365    0.0908 C   0  0  0  0  0  0  0  0  0  0  0  0
   -2.8290   -1.3595    1.4439 C   0  0  0  0  0  0  0  0  0  0  0  0
   -2.2741   -0.4451    2.5552 C   0  0  0  0  0  0  0  0  0  0  0  0
   -1.3132    0.6422    2.0139 C   0  0  0  0  0  0  0  0  0  0  0  0
   -0.7659    1.5109    3.1702 C   0  0  0  0  0  0  0  0  0  0  0  0
    0.6362    1.9260    2.7437 C   0  0  0  0  0  0  0  0  0  0  0  0
    1.0352    0.9572    1.7375 N   0  0  0  0  0  0  0  0  0  0  0  0
   -0.0310    0.0204    1.4178 C   0  0  0  0  0  0  0  0  0  0  0  0
    2.4033    0.7634    1.3466 C   0  0  0  0  0  0  0  0  0  0  0  0
    3.3219    0.9246    2.1939 O   0  0  0  0  0  0  0  0  0  0  0  0
    2.7663    0.3872   -0.0285 C   0  0  0  0  0  0  0  0  0  0  0  0
    2.0171    0.6125   -1.1700 C   0  0  0  0  0  0  0  0  0  0  0  0
    2.7672    0.1182   -2.2158 C   0  0  0  0  0  0  0  0  0  0  0  0
    3.9273   -0.3693   -1.6461 C   0  0  0  0  0  0  0  0  0  0  0  0
    3.9020   -0.1920   -0.3456 O   0  0  0  0  0  0  0  0  0  0  0  0
    5.0420   -0.9929   -2.3648 C   0  0  0  0  0  0  0  0  0  0  0  0
    5.0808   -1.1787   -3.6990 N   0  0  0  0  0  0  0  0  0  0  0  0
    6.2456   -1.7651   -3.9233 N   0  0  0  0  0  0  0  0  0  0  0  0
    6.8788   -1.9247   -2.7739 N   0  0  0  0  0  0  0  0  0  0  0  0
    6.1584   -1.4537   -1.7710 N   0  0  0  0  0  0  0  0  0  0  0  0
   -2.0400    1.5430    0.9545 C   0  0  0  0  0  0  0  0  0  0  0  0
   -3.2579    0.8739    0.2852 C   0  0  0  0  0  0  0  0  0  0  0  0
   -4.3325   -0.7769   -1.6697 H   0  0  0  0  0  0  0  0  0  0  0  0
   -4.0649   -2.3393   -0.8175 H   0  0  0  0  0  0  0  0  0  0  0  0
   -5.1798   -1.1051   -0.1081 H   0  0  0  0  0  0  0  0  0  0  0  0
   -2.1494   -0.7804   -0.5435 H   0  0  0  0  0  0  0  0  0  0  0  0
   -2.1244   -2.2045    1.2819 H   0  0  0  0  0  0  0  0  0  0  0  0
   -3.7804   -1.8013    1.8148 H   0  0  0  0  0  0  0  0  0  0  0  0
   -1.7662   -1.0752    3.3185 H   0  0  0  0  0  0  0  0  0  0  0  0
   -3.1267    0.0559    3.0657 H   0  0  0  0  0  0  0  0  0  0  0  0
   -1.3990    2.3935    3.4049 H   0  0  0  0  0  0  0  0  0  0  0  0
   -0.6792    0.9055    4.1005 H   0  0  0  0  0  0  0  0  0  0  0  0
    1.3279    1.9062    3.6139 H   0  0  0  0  0  0  0  0  0  0  0  0
    0.6235    2.9418    2.2934 H   0  0  0  0  0  0  0  0  0  0  0  0
    0.2040   -0.9577    1.8926 H   0  0  0  0  0  0  0  0  0  0  0  0
   -0.1127   -0.1382    0.3258 H   0  0  0  0  0  0  0  0  0  0  0  0
    1.0588    1.1088   -1.2442 H   0  0  0  0  0  0  0  0  0  0  0  0
    2.5040    0.1273   -3.2653 H   0  0  0  0  0  0  0  0  0  0  0  0
    7.8204   -2.3632   -2.6723 H   0  0  0  0  0  0  0  0  0  0  0  0
   -1.3254    1.8666    0.1654 H   0  0  0  0  0  0  0  0  0  0  0  0
   -2.4108    2.4825    1.4182 H   0  0  0  0  0  0  0  0  0  0  0  0
   -4.1601    1.0410    0.9152 H   0  0  0  0  0  0  0  0  0  0  0  0
   -3.4415    1.3629   -0.6968 H   0  0  0  0  0  0  0  0  0  0  0  0
  1  2  1  0
  2  3  1  0
  3  4  1  0
  4  5  1  0
  5  6  1  0
  6  7  1  0
  7  8  1  0
  8  9  1  0
  8 10  1  0
 10 11  2  0
 10 12  1  0
 12 13  2  0
 13 14  1  0
 14 15  2  0
 15 16  1  0
 15 17  1  0
 17 18  1  0
 18 19  2  0
 19 20  1  0
 20 21  1  0
  5 22  1  0
 22 23  1  0
 23  2  1  0
  9  5  1  0
 16 12  1  0
 17 21  2  0
  1 24  1  0
  1 25  1  0
  1 26  1  0
  2 27  1  0
  3 28  1  0
  3 29  1  0
  4 30  1  0
  4 31  1  0
  6 32  1  0
  6 33  1  0
  7 34  1  0
  7 35  1  0
  9 36  1  0
  9 37  1  0
 13 38  1  0
 14 39  1  0
 20 40  1  0
 22 41  1  0
 22 42  1  0
 23 43  1  0
 23 44  1  0
M  END
$$$$
