
     RDKit          3D

  0  0  0  0  0  0  0  0  0  0999 V3000
M  V30 BEGIN CTAB
M  V30 COUNTS 55 59 0 0 0
M  V30 BEGIN ATOM
M  V30 1 C -4.794350 1.685602 -2.138375 0
M  V30 2 N -3.541556 2.265171 -2.652089 0
M  V30 3 C -2.636505 2.656013 -1.557139 0
M  V30 4 C -1.356649 1.861540 -1.721542 0
M  V30 5 C -1.279681 1.604765 -3.210457 0 CFG=2
M  V30 6 C -2.758169 1.441280 -3.613375 0 CFG=1
M  V30 7 C -3.173761 -0.043710 -3.693405 0
M  V30 8 C -2.231436 -0.778643 -4.628570 0
M  V30 9 C -0.839960 -0.836475 -4.016492 0
M  V30 10 N -0.377911 0.469313 -3.509871 0
M  V30 11 C 1.021688 0.624211 -3.188128 0
M  V30 12 O 1.578384 1.740182 -3.381889 0
M  V30 13 C 1.799154 -0.508628 -2.542582 0
M  V30 14 C 3.283190 -0.216365 -2.290938 0
M  V30 15 C 3.645388 -1.049941 -1.068416 0
M  V30 16 N 2.389051 -1.294102 -0.372526 0
M  V30 17 C 1.245342 -0.858731 -1.163158 0
M  V30 18 C 2.272626 -1.837697 0.966665 0
M  V30 19 C 1.060343 -1.713035 1.676027 0
M  V30 20 C 0.928269 -2.225942 2.968822 0
M  V30 21 C 1.995430 -2.894655 3.583491 0
M  V30 22 C 3.200811 -3.042440 2.880330 0
M  V30 23 C 3.343256 -2.525881 1.585266 0
M  V30 24 F 4.512890 -2.745905 0.938740 0
M  V30 25 C 1.849286 -3.440331 4.949055 0
M  V30 26 N 2.854196 -3.987674 5.663818 0
M  V30 27 N 2.303679 -4.333440 6.814984 0
M  V30 28 N 1.020900 -4.015138 6.795278 0
M  V30 29 N 0.694947 -3.453082 5.645665 0
M  V30 30 H -5.468037 1.387361 -2.975868 0
M  V30 31 H -4.593418 0.816026 -1.476148 0
M  V30 32 H -5.339641 2.457832 -1.551400 0
M  V30 33 H -2.413031 3.741909 -1.657887 0
M  V30 34 H -3.065127 2.489868 -0.537153 0
M  V30 35 H -1.453395 0.898442 -1.175946 0
M  V30 36 H -0.475007 2.420793 -1.347286 0
M  V30 37 H -0.891987 2.521288 -3.708579 0
M  V30 38 H -2.894947 1.882293 -4.626670 0
M  V30 39 H -3.142575 -0.524408 -2.692062 0
M  V30 40 H -4.199616 -0.134187 -4.108074 0
M  V30 41 H -2.192060 -0.271445 -5.617505 0
M  V30 42 H -2.601261 -1.815510 -4.788663 0
M  V30 43 H -0.133490 -1.209458 -4.792726 0
M  V30 44 H -0.853370 -1.568221 -3.179419 0
M  V30 45 H 1.739744 -1.409692 -3.191054 0
M  V30 46 H 3.444172 0.856898 -2.042477 0
M  V30 47 H 3.909170 -0.489645 -3.170216 0
M  V30 48 H 4.352368 -0.491288 -0.416090 0
M  V30 49 H 4.093957 -2.015473 -1.391048 0
M  V30 50 H 0.789944 0.032535 -0.678704 0
M  V30 51 H 0.496520 -1.676362 -1.239748 0
M  V30 52 H 0.205588 -1.226076 1.233644 0
M  V30 53 H -0.018182 -2.105164 3.480256 0
M  V30 54 H 4.030802 -3.586602 3.320685 0
M  V30 55 H 0.359857 -4.170826 7.585954 0
M  V30 END ATOM
M  V30 BEGIN BOND
M  V30 1 1 1 2
M  V30 2 1 2 3
M  V30 3 1 3 4
M  V30 4 1 4 5
M  V30 5 1 5 6
M  V30 6 1 6 7
M  V30 7 1 7 8
M  V30 8 1 8 9
M  V30 9 1 9 10
M  V30 10 1 10 11
M  V30 11 2 11 12
M  V30 12 1 11 13
M  V30 13 1 13 14
M  V30 14 1 14 15
M  V30 15 1 15 16
M  V30 16 1 16 17
M  V30 17 1 16 18
M  V30 18 2 18 19
M  V30 19 1 19 20
M  V30 20 2 20 21
M  V30 21 1 21 22
M  V30 22 2 22 23
M  V30 23 1 23 24
M  V30 24 1 21 25
M  V30 25 1 25 26
M  V30 26 2 26 27
M  V30 27 1 27 28
M  V30 28 1 28 29
M  V30 29 1 6 2
M  V30 30 1 10 5
M  V30 31 1 17 13
M  V30 32 1 23 18
M  V30 33 2 25 29
M  V30 34 1 1 30
M  V30 35 1 1 31
M  V30 36 1 1 32
M  V30 37 1 3 33
M  V30 38 1 3 34
M  V30 39 1 4 35
M  V30 40 1 4 36
M  V30 41 1 5 37 CFG=3
M  V30 42 1 6 38 CFG=3
M  V30 43 1 7 39
M  V30 44 1 7 40
M  V30 45 1 8 41
M  V30 46 1 8 42
M  V30 47 1 9 43
M  V30 48 1 9 44
M  V30 49 1 13 45
M  V30 50 1 14 46
M  V30 51 1 14 47
M  V30 52 1 15 48
M  V30 53 1 15 49
M  V30 54 1 17 50
M  V30 55 1 17 51
M  V30 56 1 19 52
M  V30 57 1 20 53
M  V30 58 1 22 54
M  V30 59 1 28 55
M  V30 END BOND
M  V30 BEGIN COLLECTION
M  V30 MDLV30/STERAC1 ATOMS=(2 5 6)
M  V30 END COLLECTION
M  V30 END CTAB
M  END
>  <_CXSMILES_Data>  (1) 
|&1:4,5,r|

$$$$
