
     RDKit          3D

 39 40  0  0  0  0  0  0  0  0999 V2000
   -2.9946    2.1079    1.7087 C   0  0  0  0  0  0  0  0  0  0  0  0
   -1.5925    1.8194    1.1660 C   0  0  0  0  0  0  0  0  0  0  0  0
   -0.6434    1.1467    2.2021 C   0  0  0  0  0  0  0  0  0  0  0  0
    0.7612    0.9922    1.5766 C   0  0  0  0  0  0  0  0  0  0  0  0
   -0.5376    1.9599    3.3485 O   0  0  0  0  0  0  0  0  0  0  0  0
   -1.1680   -0.2389    2.6708 C   0  0  0  0  0  0  0  0  0  0  0  0
   -1.3945   -1.2190    1.5554 C   0  0  0  0  0  0  0  0  0  0  0  0
   -0.4644   -2.0764    1.0112 C   0  0  0  0  0  0  0  0  0  0  0  0
   -1.0882   -2.7064    0.0024 N   0  0  0  0  0  0  0  0  0  0  0  0
   -0.4790   -3.6150   -0.9611 C   0  0  0  0  0  0  0  0  0  0  0  0
    0.1668   -2.8220   -2.0648 C   0  0  0  0  0  0  0  0  0  0  0  0
    1.4730   -2.3371   -1.9041 C   0  0  0  0  0  0  0  0  0  0  0  0
    2.0501   -1.5468   -2.9080 C   0  0  0  0  0  0  0  0  0  0  0  0
    1.3307   -1.2478   -4.0246 N   0  0  0  0  0  0  0  0  0  0  0  0
    0.0596   -1.6948   -4.2017 C   0  0  0  0  0  0  0  0  0  0  0  0
   -0.5503   -2.4826   -3.2231 C   0  0  0  0  0  0  0  0  0  0  0  0
   -1.8290   -2.9011   -3.4011 F   0  0  0  0  0  0  0  0  0  0  0  0
    3.4418   -1.0104   -2.7434 C   0  0  0  0  0  0  0  0  0  0  0  0
    4.3237   -2.0560   -2.5389 F   0  0  0  0  0  0  0  0  0  0  0  0
    3.4838   -0.1596   -1.6540 F   0  0  0  0  0  0  0  0  0  0  0  0
    3.8310   -0.3122   -3.8731 F   0  0  0  0  0  0  0  0  0  0  0  0
   -2.3278   -2.2495   -0.0788 N   0  0  0  0  0  0  0  0  0  0  0  0
   -2.5459   -1.3431    0.8636 N   0  0  0  0  0  0  0  0  0  0  0  0
   -2.9405    2.7058    2.6425 H   0  0  0  0  0  0  0  0  0  0  0  0
   -3.5676    2.6882    0.9552 H   0  0  0  0  0  0  0  0  0  0  0  0
   -3.5456    1.1652    1.9030 H   0  0  0  0  0  0  0  0  0  0  0  0
   -1.1496    2.7869    0.8414 H   0  0  0  0  0  0  0  0  0  0  0  0
   -1.6809    1.1907    0.2539 H   0  0  0  0  0  0  0  0  0  0  0  0
    1.4481    0.4794    2.2834 H   0  0  0  0  0  0  0  0  0  0  0  0
    1.1933    1.9878    1.3387 H   0  0  0  0  0  0  0  0  0  0  0  0
    0.7183    0.4102    0.6319 H   0  0  0  0  0  0  0  0  0  0  0  0
   -0.2141    2.8558    3.0663 H   0  0  0  0  0  0  0  0  0  0  0  0
   -2.1167   -0.1144    3.2346 H   0  0  0  0  0  0  0  0  0  0  0  0
   -0.4437   -0.6819    3.3894 H   0  0  0  0  0  0  0  0  0  0  0  0
    0.5737   -2.2008    1.2924 H   0  0  0  0  0  0  0  0  0  0  0  0
   -1.2522   -4.3007   -1.3699 H   0  0  0  0  0  0  0  0  0  0  0  0
    0.2782   -4.2501   -0.4510 H   0  0  0  0  0  0  0  0  0  0  0  0
    2.0322   -2.5647   -1.0040 H   0  0  0  0  0  0  0  0  0  0  0  0
   -0.4812   -1.4301   -5.1005 H   0  0  0  0  0  0  0  0  0  0  0  0
  1  2  1  0
  2  3  1  0
  3  4  1  0
  3  5  1  0
  3  6  1  0
  6  7  1  0
  7  8  2  0
  8  9  1  0
  9 10  1  0
 10 11  1  0
 11 12  2  0
 12 13  1  0
 13 14  2  0
 14 15  1  0
 15 16  2  0
 16 17  1  0
 13 18  1  0
 18 19  1  0
 18 20  1  0
 18 21  1  0
  9 22  1  0
 22 23  2  0
 23  7  1  0
 16 11  1  0
  1 24  1  0
  1 25  1  0
  1 26  1  0
  2 27  1  0
  2 28  1  0
  4 29  1  0
  4 30  1  0
  4 31  1  0
  5 32  1  0
  6 33  1  0
  6 34  1  0
  8 35  1  0
 10 36  1  0
 10 37  1  0
 12 38  1  0
 15 39  1  0
M  END
$$$$
