
     RDKit          3D

 40 43  0  0  0  0  0  0  0  0999 V2000
   -0.5077   -0.2935    4.7407 O   0  0  0  0  0  0  0  0  0  0  0  0
    0.8202    0.1300    4.1788 S   0  0  0  0  0  0  0  0  0  0  0  0
    1.1389    1.5581    4.5225 O   0  0  0  0  0  0  0  0  0  0  0  0
    2.1092   -0.9609    4.6724 C   0  0  0  0  0  0  0  0  0  0  0  0
    2.2931   -1.9016    3.4775 C   0  0  0  0  0  0  0  0  0  0  0  0
    1.8874   -1.1830    2.1715 C   0  0  0  0  0  0  0  0  0  0  0  0
    0.9024   -0.1498    2.4861 N   0  0  0  0  0  0  0  0  0  0  0  0
    0.1925    0.6298    1.4963 C   0  0  0  0  0  0  0  0  0  0  0  0
   -0.8642    1.4817    1.8706 C   0  0  0  0  0  0  0  0  0  0  0  0
   -1.5556    2.2235    0.9099 C   0  0  0  0  0  0  0  0  0  0  0  0
   -1.2084    2.1254   -0.4372 C   0  0  0  0  0  0  0  0  0  0  0  0
   -0.1597    1.2852   -0.8353 C   0  0  0  0  0  0  0  0  0  0  0  0
    0.5345    0.5399    0.1316 C   0  0  0  0  0  0  0  0  0  0  0  0
    0.1823    1.1522   -2.2950 C   0  0  0  0  0  0  0  0  0  0  0  0
   -0.8543    0.3919   -2.9902 N   0  0  0  0  0  0  0  0  0  0  0  0
   -1.0216   -1.0228   -2.8105 C   0  0  0  0  0  0  0  0  0  0  0  0
   -0.1669   -1.7387   -2.0175 N   0  0  0  0  0  0  0  0  0  0  0  0
   -0.3190   -3.0889   -1.8319 C   0  0  0  0  0  0  0  0  0  0  0  0
   -1.3375   -3.7625   -2.4463 N   0  0  0  0  0  0  0  0  0  0  0  0
   -2.1845   -3.0592   -3.2352 C   0  0  0  0  0  0  0  0  0  0  0  0
   -3.2320   -3.5467   -3.9201 N   0  0  0  0  0  0  0  0  0  0  0  0
   -3.7210   -2.4339   -4.5323 C   0  0  0  0  0  0  0  0  0  0  0  0
   -3.0232   -1.3052   -4.2509 N   0  0  0  0  0  0  0  0  0  0  0  0
   -2.0533   -1.7263   -3.4289 C   0  0  0  0  0  0  0  0  0  0  0  0
    1.8311   -1.5199    5.5904 H   0  0  0  0  0  0  0  0  0  0  0  0
    3.0387   -0.3789    4.8469 H   0  0  0  0  0  0  0  0  0  0  0  0
    3.3433   -2.2600    3.4191 H   0  0  0  0  0  0  0  0  0  0  0  0
    1.6319   -2.7845    3.6180 H   0  0  0  0  0  0  0  0  0  0  0  0
    2.7817   -0.7098    1.7132 H   0  0  0  0  0  0  0  0  0  0  0  0
    1.4552   -1.9206    1.4616 H   0  0  0  0  0  0  0  0  0  0  0  0
   -1.1705    1.5717    2.9027 H   0  0  0  0  0  0  0  0  0  0  0  0
   -2.3690    2.8716    1.2108 H   0  0  0  0  0  0  0  0  0  0  0  0
   -1.7596    2.6984   -1.1727 H   0  0  0  0  0  0  0  0  0  0  0  0
    1.3397   -0.1091   -0.1871 H   0  0  0  0  0  0  0  0  0  0  0  0
    1.1702    0.6627   -2.4410 H   0  0  0  0  0  0  0  0  0  0  0  0
    0.2550    2.1682   -2.7415 H   0  0  0  0  0  0  0  0  0  0  0  0
   -1.4904    0.9094   -3.6368 H   0  0  0  0  0  0  0  0  0  0  0  0
    0.3736   -3.6242   -1.1972 H   0  0  0  0  0  0  0  0  0  0  0  0
   -4.5859   -2.4486   -5.1824 H   0  0  0  0  0  0  0  0  0  0  0  0
   -3.2090   -0.3399   -4.6025 H   0  0  0  0  0  0  0  0  0  0  0  0
  1  2  2  0
  2  3  2  0
  2  4  1  0
  4  5  1  0
  5  6  1  0
  6  7  1  0
  7  8  1  0
  8  9  2  0
  9 10  1  0
 10 11  2  0
 11 12  1  0
 12 13  2  0
 12 14  1  0
 14 15  1  0
 15 16  1  0
 16 17  2  0
 17 18  1  0
 18 19  2  0
 19 20  1  0
 20 21  1  0
 21 22  2  0
 22 23  1  0
 23 24  1  0
  7  2  1  0
  8 13  1  0
 16 24  1  0
 24 20  2  0
  4 25  1  0
  4 26  1  0
  5 27  1  0
  5 28  1  0
  6 29  1  0
  6 30  1  0
  9 31  1  0
 10 32  1  0
 11 33  1  0
 13 34  1  0
 14 35  1  0
 14 36  1  0
 15 37  1  0
 18 38  1  0
 22 39  1  0
 23 40  1  0
M  END
$$$$
