
     RDKit          3D

 49 52  0  0  0  0  0  0  0  0999 V2000
   -4.3388    1.1121   -1.1350 C   0  0  0  0  0  0  0  0  0  0  0  0
   -3.7626    1.8316    0.0012 N   0  0  0  0  0  0  0  0  0  0  0  0
   -4.3578    1.6925    1.3294 C   0  0  0  0  0  0  0  0  0  0  0  0
   -2.6443    2.7138   -0.1862 C   0  0  0  0  0  0  0  0  0  0  0  0
   -2.7868    4.0980    0.0418 C   0  0  0  0  0  0  0  0  0  0  0  0
   -1.7028    4.9734   -0.1554 C   0  0  0  0  0  0  0  0  0  0  0  0
   -0.4611    4.4802   -0.5786 C   0  0  0  0  0  0  0  0  0  0  0  0
   -0.3344    3.1107   -0.7910 C   0  0  0  0  0  0  0  0  0  0  0  0
    1.0300    2.2640   -1.2730 S   0  0  0  0  0  0  0  0  0  0  0  0
    0.2909    0.7418   -1.2351 C   0  0  0  0  0  0  0  0  0  0  0  0
   -1.0437    0.8920   -0.8436 C   0  0  0  0  0  0  0  0  0  0  0  0
   -1.3904    2.2300   -0.6013 C   0  0  0  0  0  0  0  0  0  0  0  0
    0.9778   -0.5189   -1.5751 C   0  0  0  0  0  0  0  0  0  0  0  0
    2.1589   -0.4667   -2.0133 O   0  0  0  0  0  0  0  0  0  0  0  0
    0.3316   -1.7946   -1.4053 N   0  0  0  0  0  0  0  0  0  0  0  0
    0.9650   -3.0691   -1.7966 C   0  0  0  0  0  0  0  0  0  0  0  0
   -0.0082   -4.2339   -1.6343 C   0  0  0  0  0  0  0  0  0  0  0  0
    0.3750   -5.2081   -2.7359 C   0  0  0  0  0  0  0  0  0  0  0  0
    1.0638   -4.4588   -3.7893 N   0  0  0  0  0  0  0  0  0  0  0  0
    1.2184   -3.0811   -3.3131 C   0  0  0  0  0  0  0  0  0  0  0  0
    2.2187   -3.3282   -0.9432 C   0  0  0  0  0  0  0  0  0  0  0  0
    3.3357   -4.0388   -1.4390 C   0  0  0  0  0  0  0  0  0  0  0  0
    4.4382   -4.2979   -0.6194 C   0  0  0  0  0  0  0  0  0  0  0  0
    4.4389   -3.8773    0.7106 C   0  0  0  0  0  0  0  0  0  0  0  0
    3.3311   -3.2073    1.2290 C   0  0  0  0  0  0  0  0  0  0  0  0
    2.2254   -2.9453    0.4157 C   0  0  0  0  0  0  0  0  0  0  0  0
   -4.3016    0.0188   -0.9449 H   0  0  0  0  0  0  0  0  0  0  0  0
   -3.7813    1.3315   -2.0710 H   0  0  0  0  0  0  0  0  0  0  0  0
   -5.3955    1.4224   -1.2753 H   0  0  0  0  0  0  0  0  0  0  0  0
   -3.5880    1.3396    2.0476 H   0  0  0  0  0  0  0  0  0  0  0  0
   -5.1908    0.9572    1.3160 H   0  0  0  0  0  0  0  0  0  0  0  0
   -4.7576    2.6696    1.6719 H   0  0  0  0  0  0  0  0  0  0  0  0
   -3.7406    4.5008    0.3570 H   0  0  0  0  0  0  0  0  0  0  0  0
   -1.8290    6.0342    0.0184 H   0  0  0  0  0  0  0  0  0  0  0  0
    0.3774    5.1474   -0.7308 H   0  0  0  0  0  0  0  0  0  0  0  0
   -1.7397    0.0733   -0.7368 H   0  0  0  0  0  0  0  0  0  0  0  0
   -0.5940   -1.8252   -0.9243 H   0  0  0  0  0  0  0  0  0  0  0  0
   -1.0548   -3.8996   -1.8138 H   0  0  0  0  0  0  0  0  0  0  0  0
    0.0433   -4.7092   -0.6295 H   0  0  0  0  0  0  0  0  0  0  0  0
    1.0711   -5.9737   -2.3307 H   0  0  0  0  0  0  0  0  0  0  0  0
   -0.5260   -5.7283   -3.1323 H   0  0  0  0  0  0  0  0  0  0  0  0
    0.4667   -4.4543   -4.6499 H   0  0  0  0  0  0  0  0  0  0  0  0
    2.2259   -2.6947   -3.5757 H   0  0  0  0  0  0  0  0  0  0  0  0
    0.4734   -2.4269   -3.8243 H   0  0  0  0  0  0  0  0  0  0  0  0
    3.3656   -4.4058   -2.4546 H   0  0  0  0  0  0  0  0  0  0  0  0
    5.2909   -4.8344   -1.0152 H   0  0  0  0  0  0  0  0  0  0  0  0
    5.2931   -4.0821    1.3430 H   0  0  0  0  0  0  0  0  0  0  0  0
    3.3247   -2.8970    2.2660 H   0  0  0  0  0  0  0  0  0  0  0  0
    1.3707   -2.4452    0.8532 H   0  0  0  0  0  0  0  0  0  0  0  0
  1  2  1  0
  2  3  1  0
  2  4  1  0
  4  5  2  0
  5  6  1  0
  6  7  2  0
  7  8  1  0
  8  9  1  0
  9 10  1  0
 10 11  2  0
 11 12  1  0
 10 13  1  0
 13 14  2  0
 13 15  1  0
 15 16  1  0
 16 17  1  0
 17 18  1  0
 18 19  1  0
 19 20  1  0
 16 21  1  0
 21 22  2  0
 22 23  1  0
 23 24  2  0
 24 25  1  0
 25 26  2  0
  4 12  1  0
 12  8  2  0
 20 16  1  0
 21 26  1  0
  1 27  1  0
  1 28  1  0
  1 29  1  0
  3 30  1  0
  3 31  1  0
  3 32  1  0
  5 33  1  0
  6 34  1  0
  7 35  1  0
 11 36  1  0
 15 37  1  0
 17 38  1  0
 17 39  1  0
 18 40  1  0
 18 41  1  0
 19 42  1  0
 20 43  1  0
 20 44  1  0
 22 45  1  0
 23 46  1  0
 24 47  1  0
 25 48  1  0
 26 49  1  0
M  END
$$$$
