
     RDKit          3D

 56 57  0  0  0  0  0  0  0  0999 V2000
   -1.8088    2.2383    2.9079 C   0  0  0  0  0  0  0  0  0  0  0  0
   -0.7905    1.2755    2.6532 O   0  0  0  0  0  0  0  0  0  0  0  0
   -1.0054    0.0369    2.0282 C   0  0  0  0  0  0  0  0  0  0  0  0
   -2.2610   -0.3395    1.5078 C   0  0  0  0  0  0  0  0  0  0  0  0
   -2.4389   -1.5884    0.8999 C   0  0  0  0  0  0  0  0  0  0  0  0
   -1.3491   -2.4752    0.8198 C   0  0  0  0  0  0  0  0  0  0  0  0
   -0.0985   -2.1115    1.3346 C   0  0  0  0  0  0  0  0  0  0  0  0
    0.0702   -0.8538    1.9311 C   0  0  0  0  0  0  0  0  0  0  0  0
    1.2438   -3.2513    1.2451 S   0  0  0  0  0  0  0  0  0  0  0  0
    1.0207   -4.3419    2.2565 O   0  0  0  0  0  0  0  0  0  0  0  0
    2.5505   -2.5686    1.5457 O   0  0  0  0  0  0  0  0  0  0  0  0
    1.3150   -3.9493   -0.3432 N   0  0  0  0  0  0  0  0  0  0  0  0
    1.3232   -3.1708   -1.5566 C   0  0  0  0  0  0  0  0  0  0  0  0
    1.6064   -1.7920   -1.5292 C   0  0  0  0  0  0  0  0  0  0  0  0
    1.6060   -1.0373   -2.7057 C   0  0  0  0  0  0  0  0  0  0  0  0
    1.3303   -1.6579   -3.9293 C   0  0  0  0  0  0  0  0  0  0  0  0
    1.0547   -3.0252   -3.9756 C   0  0  0  0  0  0  0  0  0  0  0  0
    1.0426   -3.7933   -2.7936 C   0  0  0  0  0  0  0  0  0  0  0  0
    0.7460   -5.1662   -2.8127 O   0  0  0  0  0  0  0  0  0  0  0  0
    0.3864   -5.9008   -3.9796 C   0  0  0  0  0  0  0  0  0  0  0  0
    1.9044    0.6936   -2.6096 S   0  0  0  0  0  0  0  0  0  0  0  0
    2.0278    1.2715   -3.9940 O   0  0  0  0  0  0  0  0  0  0  0  0
    3.1938    0.9141   -1.8682 O   0  0  0  0  0  0  0  0  0  0  0  0
    0.5442    1.4128   -1.7823 N   0  0  0  0  0  0  0  0  0  0  0  0
    0.7382    2.7877   -1.2587 C   0  0  0  0  0  0  0  0  0  0  0  0
   -0.6522    3.3611   -0.9069 C   0  0  0  0  0  0  0  0  0  0  0  0
    1.5739    2.7439    0.0400 C   0  0  0  0  0  0  0  0  0  0  0  0
    1.3975    3.7331   -2.2891 C   0  0  0  0  0  0  0  0  0  0  0  0
   -3.7101   -1.9089    0.3956 O   0  0  0  0  0  0  0  0  0  0  0  0
   -4.0297   -3.1267   -0.2689 C   0  0  0  0  0  0  0  0  0  0  0  0
   -1.3580    3.1237    3.4068 H   0  0  0  0  0  0  0  0  0  0  0  0
   -2.2767    2.5678    1.9547 H   0  0  0  0  0  0  0  0  0  0  0  0
   -2.5817    1.8039    3.5772 H   0  0  0  0  0  0  0  0  0  0  0  0
   -3.1081    0.3309    1.5704 H   0  0  0  0  0  0  0  0  0  0  0  0
   -1.4659   -3.4493    0.3635 H   0  0  0  0  0  0  0  0  0  0  0  0
    1.0339   -0.5648    2.3330 H   0  0  0  0  0  0  0  0  0  0  0  0
    1.2582   -4.9907   -0.3964 H   0  0  0  0  0  0  0  0  0  0  0  0
    1.8293   -1.2907   -0.5976 H   0  0  0  0  0  0  0  0  0  0  0  0
    1.3205   -1.0861   -4.8487 H   0  0  0  0  0  0  0  0  0  0  0  0
    0.8465   -3.4752   -4.9382 H   0  0  0  0  0  0  0  0  0  0  0  0
   -0.5261   -5.4651   -4.4375 H   0  0  0  0  0  0  0  0  0  0  0  0
    0.1734   -6.9526   -3.6983 H   0  0  0  0  0  0  0  0  0  0  0  0
    1.2231   -5.8916   -4.7086 H   0  0  0  0  0  0  0  0  0  0  0  0
   -0.2567    1.3935   -2.4578 H   0  0  0  0  0  0  0  0  0  0  0  0
   -0.5658    4.3531   -0.4114 H   0  0  0  0  0  0  0  0  0  0  0  0
   -1.1945    2.6689   -0.2281 H   0  0  0  0  0  0  0  0  0  0  0  0
   -1.2664    3.4916   -1.8261 H   0  0  0  0  0  0  0  0  0  0  0  0
    1.5509    3.7298    0.5562 H   0  0  0  0  0  0  0  0  0  0  0  0
    1.1729    1.9722    0.7333 H   0  0  0  0  0  0  0  0  0  0  0  0
    2.6375    2.5185   -0.1607 H   0  0  0  0  0  0  0  0  0  0  0  0
    1.3741    4.7849   -1.9278 H   0  0  0  0  0  0  0  0  0  0  0  0
    2.4638    3.4692   -2.4581 H   0  0  0  0  0  0  0  0  0  0  0  0
    0.8540    3.6838   -3.2557 H   0  0  0  0  0  0  0  0  0  0  0  0
   -3.8968   -3.9861    0.4214 H   0  0  0  0  0  0  0  0  0  0  0  0
   -5.0879   -3.0906   -0.5960 H   0  0  0  0  0  0  0  0  0  0  0  0
   -3.3885   -3.2545   -1.1663 H   0  0  0  0  0  0  0  0  0  0  0  0
  1  2  1  0
  2  3  1  0
  3  4  2  0
  4  5  1  0
  5  6  2  0
  6  7  1  0
  7  8  2  0
  7  9  1  0
  9 10  2  0
  9 11  2  0
  9 12  1  0
 12 13  1  0
 13 14  2  0
 14 15  1  0
 15 16  2  0
 16 17  1  0
 17 18  2  0
 18 19  1  0
 19 20  1  0
 15 21  1  0
 21 22  2  0
 21 23  2  0
 21 24  1  0
 24 25  1  0
 25 26  1  0
 25 27  1  0
 25 28  1  0
  5 29  1  0
 29 30  1  0
  8  3  1  0
 13 18  1  0
  1 31  1  0
  1 32  1  0
  1 33  1  0
  4 34  1  0
  6 35  1  0
  8 36  1  0
 12 37  1  0
 14 38  1  0
 16 39  1  0
 17 40  1  0
 20 41  1  0
 20 42  1  0
 20 43  1  0
 24 44  1  0
 26 45  1  0
 26 46  1  0
 26 47  1  0
 27 48  1  0
 27 49  1  0
 27 50  1  0
 28 51  1  0
 28 52  1  0
 28 53  1  0
 30 54  1  0
 30 55  1  0
 30 56  1  0
M  END
$$$$
