
     RDKit          3D

 48 51  0  0  0  0  0  0  0  0999 V2000
   -3.8878   -0.8131   -2.5004 C   0  0  0  0  0  0  0  0  0  0  0  0
   -2.5690   -0.7946   -1.7268 C   0  0  0  0  0  0  0  0  0  0  0  0
   -2.3018    0.5576   -1.0267 C   0  0  0  0  0  0  0  0  0  0  0  0
   -3.3823    0.8508    0.0488 C   0  0  0  0  0  0  0  0  0  0  0  0
   -2.9142    1.8933    1.0254 C   0  0  0  0  0  0  0  0  0  0  0  0
   -3.7848    2.8762    1.5205 C   0  0  0  0  0  0  0  0  0  0  0  0
   -3.3339    3.7931    2.4753 C   0  0  0  0  0  0  0  0  0  0  0  0
   -2.0211    3.7218    2.9512 C   0  0  0  0  0  0  0  0  0  0  0  0
   -1.1545    2.7340    2.4733 C   0  0  0  0  0  0  0  0  0  0  0  0
   -1.5988    1.8214    1.5046 C   0  0  0  0  0  0  0  0  0  0  0  0
   -0.7094    0.7326    0.9817 C   0  0  0  0  0  0  0  0  0  0  0  0
   -0.9283    0.5677   -0.4652 N   0  0  0  0  0  0  0  0  0  0  0  0
    0.1920    0.5318   -1.3785 C   0  0  0  0  0  0  0  0  0  0  0  0
    0.1324    1.2016   -2.4456 O   0  0  0  0  0  0  0  0  0  0  0  0
    1.4344   -0.3032   -1.1305 C   0  0  0  0  0  0  0  0  0  0  0  0
    2.5966    0.6030   -0.6409 C   0  0  0  0  0  0  0  0  0  0  0  0
    3.7340   -0.1318    0.0855 C   0  0  0  0  0  0  0  0  0  0  0  0
    4.1899   -1.3383   -0.6711 C   0  0  0  0  0  0  0  0  0  0  0  0
    5.4298   -1.4719   -1.1788 N   0  0  0  0  0  0  0  0  0  0  0  0
    5.4760   -2.6546   -1.7742 N   0  0  0  0  0  0  0  0  0  0  0  0
    4.2645   -3.2229   -1.6231 C   0  0  0  0  0  0  0  0  0  0  0  0
    3.4274   -2.4174   -0.9443 N   0  0  0  0  0  0  0  0  0  0  0  0
    2.0524   -2.7483   -0.5477 C   0  0  0  0  0  0  0  0  0  0  0  0
    1.1695   -1.5265   -0.2157 C   0  0  0  0  0  0  0  0  0  0  0  0
   -3.9669   -1.7615   -3.0725 H   0  0  0  0  0  0  0  0  0  0  0  0
   -4.7518   -0.7565   -1.8062 H   0  0  0  0  0  0  0  0  0  0  0  0
   -3.9300    0.0357   -3.2155 H   0  0  0  0  0  0  0  0  0  0  0  0
   -1.7529   -1.0050   -2.4509 H   0  0  0  0  0  0  0  0  0  0  0  0
   -2.5687   -1.6158   -0.9774 H   0  0  0  0  0  0  0  0  0  0  0  0
   -2.3703    1.3700   -1.7849 H   0  0  0  0  0  0  0  0  0  0  0  0
   -4.3169    1.1875   -0.4507 H   0  0  0  0  0  0  0  0  0  0  0  0
   -3.6136   -0.0730    0.6228 H   0  0  0  0  0  0  0  0  0  0  0  0
   -4.8088    2.9299    1.1726 H   0  0  0  0  0  0  0  0  0  0  0  0
   -4.0048    4.5537    2.8531 H   0  0  0  0  0  0  0  0  0  0  0  0
   -1.6771    4.4284    3.6954 H   0  0  0  0  0  0  0  0  0  0  0  0
   -0.1430    2.6814    2.8563 H   0  0  0  0  0  0  0  0  0  0  0  0
    0.3483    0.9757    1.2021 H   0  0  0  0  0  0  0  0  0  0  0  0
   -0.9616   -0.2164    1.5007 H   0  0  0  0  0  0  0  0  0  0  0  0
    1.7276   -0.7042   -2.1278 H   0  0  0  0  0  0  0  0  0  0  0  0
    3.0230    1.1327   -1.5215 H   0  0  0  0  0  0  0  0  0  0  0  0
    2.2197    1.3926    0.0419 H   0  0  0  0  0  0  0  0  0  0  0  0
    4.5876    0.5687    0.2125 H   0  0  0  0  0  0  0  0  0  0  0  0
    3.4155   -0.4360    1.1043 H   0  0  0  0  0  0  0  0  0  0  0  0
    4.0043   -4.2050   -1.9963 H   0  0  0  0  0  0  0  0  0  0  0  0
    1.5707   -3.3092   -1.3789 H   0  0  0  0  0  0  0  0  0  0  0  0
    2.0820   -3.4245    0.3334 H   0  0  0  0  0  0  0  0  0  0  0  0
    0.1138   -1.8589   -0.3249 H   0  0  0  0  0  0  0  0  0  0  0  0
    1.2985   -1.2544    0.8524 H   0  0  0  0  0  0  0  0  0  0  0  0
  1  2  1  0
  2  3  1  0
  3  4  1  0
  4  5  1  0
  5  6  2  0
  6  7  1  0
  7  8  2  0
  8  9  1  0
  9 10  2  0
 10 11  1  0
 11 12  1  0
 12 13  1  0
 13 14  2  0
 13 15  1  0
 15 16  1  0
 16 17  1  0
 17 18  1  0
 18 19  2  0
 19 20  1  0
 20 21  2  0
 21 22  1  0
 22 23  1  0
 23 24  1  0
 12  3  1  0
  5 10  1  0
 24 15  1  0
 22 18  1  0
  1 25  1  0
  1 26  1  0
  1 27  1  0
  2 28  1  0
  2 29  1  0
  3 30  1  0
  4 31  1  0
  4 32  1  0
  6 33  1  0
  7 34  1  0
  8 35  1  0
  9 36  1  0
 11 37  1  0
 11 38  1  0
 15 39  1  0
 16 40  1  0
 16 41  1  0
 17 42  1  0
 17 43  1  0
 21 44  1  0
 23 45  1  0
 23 46  1  0
 24 47  1  0
 24 48  1  0
M  END
$$$$
