
     RDKit          3D

 49 51  0  0  0  0  0  0  0  0999 V2000
   -6.3144   -1.9147    1.7175 C   0  0  0  0  0  0  0  0  0  0  0  0
   -5.9662   -0.5069    1.4649 N   0  0  0  0  0  0  0  0  0  0  0  0
   -6.0683    0.2563    2.7212 C   0  0  0  0  0  0  0  0  0  0  0  0
   -4.6066   -0.4059    0.8903 C   0  0  0  0  0  0  0  0  0  0  0  0
   -4.4939    0.8387    0.0010 C   0  0  0  0  0  0  0  0  0  0  0  0
   -3.1458    0.8949   -0.6667 C   0  0  0  0  0  0  0  0  0  0  0  0
   -2.9240    0.2035   -1.8683 C   0  0  0  0  0  0  0  0  0  0  0  0
   -1.6612    0.2157   -2.4685 C   0  0  0  0  0  0  0  0  0  0  0  0
   -0.6006    0.9154   -1.8721 C   0  0  0  0  0  0  0  0  0  0  0  0
   -0.8203    1.6013   -0.6668 C   0  0  0  0  0  0  0  0  0  0  0  0
   -2.0825    1.5853   -0.0642 C   0  0  0  0  0  0  0  0  0  0  0  0
    0.7647    0.9193   -2.5064 C   0  0  0  0  0  0  0  0  0  0  0  0
    1.7382    0.2563   -1.6409 N   0  0  0  0  0  0  0  0  0  0  0  0
    1.6755   -1.1440   -1.3362 C   0  0  0  0  0  0  0  0  0  0  0  0
    0.7349   -1.8509   -1.7846 O   0  0  0  0  0  0  0  0  0  0  0  0
    2.7510   -1.7871   -0.5151 C   0  0  0  0  0  0  0  0  0  0  0  0
    3.7624   -2.4396   -1.4159 C   0  0  0  0  0  0  0  0  0  0  0  0
    3.6516   -3.8154   -1.7306 C   0  0  0  0  0  0  0  0  0  0  0  0
    4.5699   -4.4251   -2.5997 C   0  0  0  0  0  0  0  0  0  0  0  0
    5.5794   -3.6387   -3.1475 C   0  0  0  0  0  0  0  0  0  0  0  0
    6.7947   -4.0936   -4.2119 S   0  0  0  0  0  0  0  0  0  0  0  0
    7.4905   -2.5550   -4.3194 C   0  0  0  0  0  0  0  0  0  0  0  0
    6.7697   -1.6709   -3.5173 C   0  0  0  0  0  0  0  0  0  0  0  0
    5.6981   -2.2880   -2.8620 C   0  0  0  0  0  0  0  0  0  0  0  0
    4.7927   -1.6680   -1.9964 C   0  0  0  0  0  0  0  0  0  0  0  0
   -7.3143   -1.9887    2.1971 H   0  0  0  0  0  0  0  0  0  0  0  0
   -5.5613   -2.4054    2.3720 H   0  0  0  0  0  0  0  0  0  0  0  0
   -6.3761   -2.4660    0.7565 H   0  0  0  0  0  0  0  0  0  0  0  0
   -7.1148    0.2366    3.0955 H   0  0  0  0  0  0  0  0  0  0  0  0
   -5.8059    1.3215    2.5549 H   0  0  0  0  0  0  0  0  0  0  0  0
   -5.3979   -0.1619    3.5044 H   0  0  0  0  0  0  0  0  0  0  0  0
   -3.8281   -0.3779    1.6887 H   0  0  0  0  0  0  0  0  0  0  0  0
   -4.3850   -1.2924    0.2495 H   0  0  0  0  0  0  0  0  0  0  0  0
   -5.2928    0.8139   -0.7721 H   0  0  0  0  0  0  0  0  0  0  0  0
   -4.6499    1.7579    0.6036 H   0  0  0  0  0  0  0  0  0  0  0  0
   -3.7277   -0.3509   -2.3366 H   0  0  0  0  0  0  0  0  0  0  0  0
   -1.5109   -0.3272   -3.3940 H   0  0  0  0  0  0  0  0  0  0  0  0
   -0.0116    2.1408   -0.1904 H   0  0  0  0  0  0  0  0  0  0  0  0
   -2.2300    2.1082    0.8730 H   0  0  0  0  0  0  0  0  0  0  0  0
    1.0775    1.9739   -2.6716 H   0  0  0  0  0  0  0  0  0  0  0  0
    0.7539    0.4197   -3.5002 H   0  0  0  0  0  0  0  0  0  0  0  0
    2.5194    0.8278   -1.2445 H   0  0  0  0  0  0  0  0  0  0  0  0
    2.2965   -2.5371    0.1687 H   0  0  0  0  0  0  0  0  0  0  0  0
    3.2483   -1.0275    0.1262 H   0  0  0  0  0  0  0  0  0  0  0  0
    2.8535   -4.4111   -1.3038 H   0  0  0  0  0  0  0  0  0  0  0  0
    4.4901   -5.4775   -2.8406 H   0  0  0  0  0  0  0  0  0  0  0  0
    8.3545   -2.2961   -4.9156 H   0  0  0  0  0  0  0  0  0  0  0  0
    7.0152   -0.6212   -3.4170 H   0  0  0  0  0  0  0  0  0  0  0  0
    4.8804   -0.6097   -1.7804 H   0  0  0  0  0  0  0  0  0  0  0  0
  1  2  1  0
  2  3  1  0
  2  4  1  0
  4  5  1  0
  5  6  1  0
  6  7  2  0
  7  8  1  0
  8  9  2  0
  9 10  1  0
 10 11  2  0
  9 12  1  0
 12 13  1  0
 13 14  1  0
 14 15  2  0
 14 16  1  0
 16 17  1  0
 17 18  2  0
 18 19  1  0
 19 20  2  0
 20 21  1  0
 21 22  1  0
 22 23  2  0
 23 24  1  0
 24 25  2  0
  6 11  1  0
 17 25  1  0
 20 24  1  0
  1 26  1  0
  1 27  1  0
  1 28  1  0
  3 29  1  0
  3 30  1  0
  3 31  1  0
  4 32  1  0
  4 33  1  0
  5 34  1  0
  5 35  1  0
  7 36  1  0
  8 37  1  0
 10 38  1  0
 11 39  1  0
 12 40  1  0
 12 41  1  0
 13 42  1  0
 16 43  1  0
 16 44  1  0
 18 45  1  0
 19 46  1  0
 22 47  1  0
 23 48  1  0
 25 49  1  0
M  END
$$$$
