
     RDKit          3D

 42 44  0  0  0  0  0  0  0  0999 V2000
   -2.6747    1.3018   -1.9736 C   0  0  0  0  0  0  0  0  0  0  0  0
   -1.9431    1.1879   -0.6380 C   0  0  0  0  0  0  0  0  0  0  0  0
   -1.4683   -0.1865   -0.3996 N   0  0  0  0  0  0  0  0  0  0  0  0
   -0.3950   -0.7477   -1.2378 C   0  0  0  0  0  0  0  0  0  0  0  0
    0.8644    0.0515   -1.1053 C   0  0  0  0  0  0  0  0  0  0  0  0
    1.7498    0.0350   -0.0502 C   0  0  0  0  0  0  0  0  0  0  0  0
    2.6928    0.9446   -0.3470 N   0  0  0  0  0  0  0  0  0  0  0  0
    3.8879    1.2462    0.4309 C   0  0  0  0  0  0  0  0  0  0  0  0
    4.9746    0.2830    0.0830 C   0  0  0  0  0  0  0  0  0  0  0  0
    5.1551   -0.8974    0.7141 N   0  0  0  0  0  0  0  0  0  0  0  0
    6.1647   -1.6187    0.1580 C   0  0  0  0  0  0  0  0  0  0  0  0
    6.7850   -1.0219   -0.9334 C   0  0  0  0  0  0  0  0  0  0  0  0
    6.0376    0.4596   -1.2072 S   0  0  0  0  0  0  0  0  0  0  0  0
    2.4080    1.4819   -1.5227 N   0  0  0  0  0  0  0  0  0  0  0  0
    1.2883    0.9621   -2.0056 N   0  0  0  0  0  0  0  0  0  0  0  0
   -2.1126   -1.0105    0.5977 C   0  0  0  0  0  0  0  0  0  0  0  0
   -1.3463   -1.7909    1.4810 C   0  0  0  0  0  0  0  0  0  0  0  0
   -1.9679   -2.5912    2.4422 C   0  0  0  0  0  0  0  0  0  0  0  0
   -3.3601   -2.6186    2.5394 C   0  0  0  0  0  0  0  0  0  0  0  0
   -4.1427   -1.8327    1.6812 C   0  0  0  0  0  0  0  0  0  0  0  0
   -3.5156   -1.0420    0.7048 C   0  0  0  0  0  0  0  0  0  0  0  0
   -5.6410   -1.8900    1.7596 C   0  0  0  0  0  0  0  0  0  0  0  0
   -6.1109   -2.8948    0.9060 O   0  0  0  0  0  0  0  0  0  0  0  0
   -1.9619    1.1874   -2.8165 H   0  0  0  0  0  0  0  0  0  0  0  0
   -3.4640    0.5261   -2.0553 H   0  0  0  0  0  0  0  0  0  0  0  0
   -3.1480    2.3030   -2.0529 H   0  0  0  0  0  0  0  0  0  0  0  0
   -1.0850    1.8929   -0.6290 H   0  0  0  0  0  0  0  0  0  0  0  0
   -2.6248    1.5122    0.1784 H   0  0  0  0  0  0  0  0  0  0  0  0
   -0.1818   -1.8037   -0.9665 H   0  0  0  0  0  0  0  0  0  0  0  0
   -0.7177   -0.7595   -2.2997 H   0  0  0  0  0  0  0  0  0  0  0  0
    1.7216   -0.5778    0.8405 H   0  0  0  0  0  0  0  0  0  0  0  0
    4.2247    2.2830    0.2159 H   0  0  0  0  0  0  0  0  0  0  0  0
    3.6595    1.1784    1.5166 H   0  0  0  0  0  0  0  0  0  0  0  0
    6.4521   -2.5894    0.5385 H   0  0  0  0  0  0  0  0  0  0  0  0
    7.5984   -1.4426   -1.5088 H   0  0  0  0  0  0  0  0  0  0  0  0
   -0.2667   -1.7757    1.4336 H   0  0  0  0  0  0  0  0  0  0  0  0
   -1.3682   -3.1921    3.1136 H   0  0  0  0  0  0  0  0  0  0  0  0
   -3.8276   -3.2510    3.2840 H   0  0  0  0  0  0  0  0  0  0  0  0
   -4.1236   -0.4616    0.0236 H   0  0  0  0  0  0  0  0  0  0  0  0
   -6.0750   -0.9085    1.4632 H   0  0  0  0  0  0  0  0  0  0  0  0
   -5.9608   -2.1018    2.8047 H   0  0  0  0  0  0  0  0  0  0  0  0
   -7.0995   -2.8899    0.9930 H   0  0  0  0  0  0  0  0  0  0  0  0
  1  2  1  0
  2  3  1  0
  3  4  1  0
  4  5  1  0
  5  6  2  0
  6  7  1  0
  7  8  1  0
  8  9  1  0
  9 10  2  0
 10 11  1  0
 11 12  2  0
 12 13  1  0
  7 14  1  0
 14 15  2  0
  3 16  1  0
 16 17  2  0
 17 18  1  0
 18 19  2  0
 19 20  1  0
 20 21  2  0
 20 22  1  0
 22 23  1  0
 15  5  1  0
 13  9  1  0
 16 21  1  0
  1 24  1  0
  1 25  1  0
  1 26  1  0
  2 27  1  0
  2 28  1  0
  4 29  1  0
  4 30  1  0
  6 31  1  0
  8 32  1  0
  8 33  1  0
 11 34  1  0
 12 35  1  0
 17 36  1  0
 18 37  1  0
 19 38  1  0
 21 39  1  0
 22 40  1  0
 22 41  1  0
 23 42  1  0
M  END
$$$$
