
     RDKit          3D

 44 47  0  0  0  0  0  0  0  0999 V2000
   -3.4211   -1.1627   -0.6707 O   0  0  0  0  0  0  0  0  0  0  0  0
   -2.1842   -0.9802   -0.5015 C   0  0  0  0  0  0  0  0  0  0  0  0
   -1.5584   -1.4359    0.7097 N   0  0  0  0  0  0  0  0  0  0  0  0
   -2.3403   -1.8942    1.8633 C   0  0  0  0  0  0  0  0  0  0  0  0
   -3.0666   -0.7069    2.5267 C   0  0  0  0  0  0  0  0  0  0  0  0
   -3.4185   -1.0063    3.9957 C   0  0  0  0  0  0  0  0  0  0  0  0
   -3.5259   -2.3991    4.2136 O   0  0  0  0  0  0  0  0  0  0  0  0
   -2.2441   -3.0055    4.1451 C   0  0  0  0  0  0  0  0  0  0  0  0
   -1.4385   -2.5976    2.8891 C   0  0  0  0  0  0  0  0  0  0  0  0
   -1.3954   -0.3161   -1.5666 C   0  0  0  0  0  0  0  0  0  0  0  0
   -1.8559   -0.3143   -2.8923 C   0  0  0  0  0  0  0  0  0  0  0  0
   -1.1369    0.2984   -3.8680 N   0  0  0  0  0  0  0  0  0  0  0  0
    0.0342    0.9342   -3.6065 C   0  0  0  0  0  0  0  0  0  0  0  0
    0.5403    0.9782   -2.2978 C   0  0  0  0  0  0  0  0  0  0  0  0
   -0.1918    0.3479   -1.2775 C   0  0  0  0  0  0  0  0  0  0  0  0
    1.8158    1.6772   -1.9977 C   0  0  0  0  0  0  0  0  0  0  0  0
    2.1313    2.9054   -2.6337 C   0  0  0  0  0  0  0  0  0  0  0  0
    3.3366    3.5685   -2.3511 C   0  0  0  0  0  0  0  0  0  0  0  0
    4.2089    2.9900   -1.4342 C   0  0  0  0  0  0  0  0  0  0  0  0
    5.4294    3.4854   -1.0317 O   0  0  0  0  0  0  0  0  0  0  0  0
    6.0274    2.6054   -0.0798 C   0  0  0  0  0  0  0  0  0  0  0  0
    5.0284    1.4359    0.1019 C   0  0  0  0  0  0  0  0  0  0  0  0
    3.9201    1.8109   -0.8143 C   0  0  0  0  0  0  0  0  0  0  0  0
    2.7325    1.1264   -1.0722 C   0  0  0  0  0  0  0  0  0  0  0  0
   -0.5165   -1.5091    0.7426 H   0  0  0  0  0  0  0  0  0  0  0  0
   -3.0958   -2.6354    1.5165 H   0  0  0  0  0  0  0  0  0  0  0  0
   -3.9974   -0.4900    1.9591 H   0  0  0  0  0  0  0  0  0  0  0  0
   -2.4278    0.2029    2.4904 H   0  0  0  0  0  0  0  0  0  0  0  0
   -4.3918   -0.5311    4.2410 H   0  0  0  0  0  0  0  0  0  0  0  0
   -2.6614   -0.5541    4.6781 H   0  0  0  0  0  0  0  0  0  0  0  0
   -2.3919   -4.1060    4.1285 H   0  0  0  0  0  0  0  0  0  0  0  0
   -1.6642   -2.7745    5.0662 H   0  0  0  0  0  0  0  0  0  0  0  0
   -0.6197   -1.9073    3.1919 H   0  0  0  0  0  0  0  0  0  0  0  0
   -0.9732   -3.4966    2.4287 H   0  0  0  0  0  0  0  0  0  0  0  0
   -2.7814   -0.8096   -3.1564 H   0  0  0  0  0  0  0  0  0  0  0  0
    0.5749    1.3920   -4.4244 H   0  0  0  0  0  0  0  0  0  0  0  0
    0.1584    0.4139   -0.2558 H   0  0  0  0  0  0  0  0  0  0  0  0
    1.4395    3.3581   -3.3326 H   0  0  0  0  0  0  0  0  0  0  0  0
    3.5798    4.5073   -2.8311 H   0  0  0  0  0  0  0  0  0  0  0  0
    7.0000    2.2364   -0.4696 H   0  0  0  0  0  0  0  0  0  0  0  0
    6.1847    3.1423    0.8799 H   0  0  0  0  0  0  0  0  0  0  0  0
    4.6627    1.3793    1.1496 H   0  0  0  0  0  0  0  0  0  0  0  0
    5.4798    0.4701   -0.2112 H   0  0  0  0  0  0  0  0  0  0  0  0
    2.5379    0.1830   -0.5778 H   0  0  0  0  0  0  0  0  0  0  0  0
  1  2  2  0
  2  3  1  0
  3  4  1  0
  4  5  1  0
  5  6  1  0
  6  7  1  0
  7  8  1  0
  8  9  1  0
  2 10  1  0
 10 11  2  0
 11 12  1  0
 12 13  2  0
 13 14  1  0
 14 15  2  0
 14 16  1  0
 16 17  2  0
 17 18  1  0
 18 19  2  0
 19 20  1  0
 20 21  1  0
 21 22  1  0
 22 23  1  0
 23 24  2  0
  9  4  1  0
 10 15  1  0
 24 16  1  0
 23 19  1  0
  3 25  1  0
  4 26  1  0
  5 27  1  0
  5 28  1  0
  6 29  1  0
  6 30  1  0
  8 31  1  0
  8 32  1  0
  9 33  1  0
  9 34  1  0
 11 35  1  0
 13 36  1  0
 15 37  1  0
 17 38  1  0
 18 39  1  0
 21 40  1  0
 21 41  1  0
 22 42  1  0
 22 43  1  0
 24 44  1  0
M  END
$$$$
