
     RDKit          3D

 47 50  0  0  0  0  0  0  0  0999 V2000
   -1.5821   -0.9135    3.1132 O   0  0  0  0  0  0  0  0  0  0  0  0
   -1.3358   -1.0432    1.8828 C   0  0  0  0  0  0  0  0  0  0  0  0
   -0.4502   -0.0614    1.2201 C   0  0  0  0  0  0  0  0  0  0  0  0
   -0.6954    0.3459   -0.1010 C   0  0  0  0  0  0  0  0  0  0  0  0
    0.1388    1.2817   -0.7190 C   0  0  0  0  0  0  0  0  0  0  0  0
    1.2313    1.8265   -0.0264 C   0  0  0  0  0  0  0  0  0  0  0  0
    1.4559    1.4456    1.3053 C   0  0  0  0  0  0  0  0  0  0  0  0
    0.6220    0.5100    1.9242 C   0  0  0  0  0  0  0  0  0  0  0  0
    2.0836    2.8008   -0.6520 N   0  0  0  0  0  0  0  0  0  0  0  0
    2.5325    3.9563   -0.0995 C   0  0  0  0  0  0  0  0  0  0  0  0
    3.3114    4.6870   -0.9385 N   0  0  0  0  0  0  0  0  0  0  0  0
    3.3444    3.9362   -2.0548 C   0  0  0  0  0  0  0  0  0  0  0  0
    4.0338    4.2046   -3.2350 C   0  0  0  0  0  0  0  0  0  0  0  0
    3.9624    3.2507   -4.2670 C   0  0  0  0  0  0  0  0  0  0  0  0
    3.2220    2.0602   -4.0908 C   0  0  0  0  0  0  0  0  0  0  0  0
    2.5386    1.8170   -2.8848 C   0  0  0  0  0  0  0  0  0  0  0  0
    2.6100    2.7967   -1.8899 C   0  0  0  0  0  0  0  0  0  0  0  0
   -1.9050   -2.1504    1.1576 N   0  0  0  0  0  0  0  0  0  0  0  0
   -1.0814   -2.8948    0.1907 C   0  0  0  0  0  0  0  0  0  0  0  0
   -1.6426   -4.3017   -0.0587 C   0  0  0  0  0  0  0  0  0  0  0  0
   -2.0304   -4.9642    1.2706 C   0  0  0  0  0  0  0  0  0  0  0  0
   -3.0627   -4.1320    2.1024 C   0  0  0  0  0  0  0  0  0  0  0  0
   -2.5812   -4.0608    3.4260 O   0  0  0  0  0  0  0  0  0  0  0  0
   -4.4401   -4.8404    2.1092 C   0  0  0  0  0  0  0  0  0  0  0  0
   -4.9088   -5.0317    0.8014 O   0  0  0  0  0  0  0  0  0  0  0  0
   -3.2152   -2.6890    1.5423 C   0  0  0  0  0  0  0  0  0  0  0  0
   -1.5488   -0.0371   -0.6460 H   0  0  0  0  0  0  0  0  0  0  0  0
   -0.0854    1.6024   -1.7280 H   0  0  0  0  0  0  0  0  0  0  0  0
    2.2863    1.8642    1.8601 H   0  0  0  0  0  0  0  0  0  0  0  0
    0.8223    0.2223    2.9491 H   0  0  0  0  0  0  0  0  0  0  0  0
    2.2865    4.2769    0.9049 H   0  0  0  0  0  0  0  0  0  0  0  0
    4.6116    5.1121   -3.3523 H   0  0  0  0  0  0  0  0  0  0  0  0
    4.4871    3.4252   -5.1972 H   0  0  0  0  0  0  0  0  0  0  0  0
    3.1870    1.3264   -4.8853 H   0  0  0  0  0  0  0  0  0  0  0  0
    1.9961    0.8932   -2.7396 H   0  0  0  0  0  0  0  0  0  0  0  0
   -0.0472   -2.9951    0.5883 H   0  0  0  0  0  0  0  0  0  0  0  0
   -1.0334   -2.3477   -0.7729 H   0  0  0  0  0  0  0  0  0  0  0  0
   -0.8767   -4.9197   -0.5754 H   0  0  0  0  0  0  0  0  0  0  0  0
   -2.5335   -4.2428   -0.7212 H   0  0  0  0  0  0  0  0  0  0  0  0
   -1.0963   -5.1029    1.8603 H   0  0  0  0  0  0  0  0  0  0  0  0
   -2.4091   -5.9887    1.0606 H   0  0  0  0  0  0  0  0  0  0  0  0
   -3.2482   -3.5716    3.9763 H   0  0  0  0  0  0  0  0  0  0  0  0
   -5.1752   -4.2289    2.6802 H   0  0  0  0  0  0  0  0  0  0  0  0
   -4.3451   -5.8264    2.6182 H   0  0  0  0  0  0  0  0  0  0  0  0
   -5.7818   -5.4958    0.8862 H   0  0  0  0  0  0  0  0  0  0  0  0
   -3.8647   -2.6899    0.6401 H   0  0  0  0  0  0  0  0  0  0  0  0
   -3.7214   -2.0294    2.2812 H   0  0  0  0  0  0  0  0  0  0  0  0
  1  2  2  0
  2  3  1  0
  3  4  2  0
  4  5  1  0
  5  6  2  0
  6  7  1  0
  7  8  2  0
  6  9  1  0
  9 10  1  0
 10 11  2  0
 11 12  1  0
 12 13  2  0
 13 14  1  0
 14 15  2  0
 15 16  1  0
 16 17  2  0
  2 18  1  0
 18 19  1  0
 19 20  1  0
 20 21  1  0
 21 22  1  0
 22 23  1  0
 22 24  1  0
 24 25  1  0
 22 26  1  0
  3  8  1  0
 17  9  1  0
 12 17  1  0
 26 18  1  0
  4 27  1  0
  5 28  1  0
  7 29  1  0
  8 30  1  0
 10 31  1  0
 13 32  1  0
 14 33  1  0
 15 34  1  0
 16 35  1  0
 19 36  1  0
 19 37  1  0
 20 38  1  0
 20 39  1  0
 21 40  1  0
 21 41  1  0
 23 42  1  0
 24 43  1  0
 24 44  1  0
 25 45  1  0
 26 46  1  0
 26 47  1  0
M  END
$$$$
