
     RDKit          3D

  0  0  0  0  0  0  0  0  0  0999 V3000
M  V30 BEGIN CTAB
M  V30 COUNTS 40 43 0 0 0
M  V30 BEGIN ATOM
M  V30 1 O -0.993522 2.456157 -0.238901 0
M  V30 2 C -1.162028 1.211320 -0.345054 0
M  V30 3 N -0.127185 0.309131 0.071242 0
M  V30 4 C 1.219802 0.772469 0.417593 0
M  V30 5 C 2.247348 -0.332380 0.172619 0
M  V30 6 C 2.463146 -1.013503 1.513295 0
M  V30 7 C 2.191531 0.060376 2.569377 0 CFG=2
M  V30 8 C 1.045171 -0.235542 3.538462 0
M  V30 9 C 0.207743 0.850644 2.877379 0
M  V30 10 C 1.361673 1.150957 1.907905 0 CFG=2
M  V30 11 C -2.450814 0.700003 -0.846227 0
M  V30 12 C -3.675190 1.317128 -0.693986 0
M  V30 13 N -4.626276 0.504758 -1.185986 0
M  V30 14 N -4.073259 -0.600432 -1.658525 0
M  V30 15 C -2.740518 -0.509180 -1.472652 0
M  V30 16 C -1.792958 -1.535152 -1.954659 0
M  V30 17 C -0.581534 -1.169710 -2.568031 0
M  V30 18 C 0.301616 -2.152163 -3.025541 0
M  V30 19 C -0.022872 -3.504325 -2.889612 0
M  V30 20 C -1.235646 -3.876318 -2.303185 0
M  V30 21 F -1.552799 -5.188823 -2.177322 0
M  V30 22 C -2.122119 -2.896339 -1.844109 0
M  V30 23 H -0.374352 -0.691416 0.245560 0
M  V30 24 H 1.483891 1.647557 -0.218061 0
M  V30 25 H 3.205911 0.124792 -0.159970 0
M  V30 26 H 1.917023 -1.057510 -0.603295 0
M  V30 27 H 1.764643 -1.873778 1.604411 0
M  V30 28 H 3.504252 -1.392596 1.598454 0
M  V30 29 H 3.107536 0.455533 3.062849 0
M  V30 30 H 1.309152 0.018747 4.588248 0
M  V30 31 H 0.591831 -1.245119 3.432219 0
M  V30 32 H 0.014001 1.701316 3.566766 0
M  V30 33 H -0.722494 0.443416 2.431972 0
M  V30 34 H 1.802851 2.160965 2.062697 0
M  V30 35 H -3.865889 2.275161 -0.227392 0
M  V30 36 H -5.651699 0.698259 -1.197041 0
M  V30 37 H -0.322743 -0.127053 -2.701088 0
M  V30 38 H 1.236574 -1.864431 -3.489085 0
M  V30 39 H 0.663151 -4.262866 -3.244321 0
M  V30 40 H -3.057282 -3.198725 -1.388592 0
M  V30 END ATOM
M  V30 BEGIN BOND
M  V30 1 2 1 2
M  V30 2 1 2 3
M  V30 3 1 3 4
M  V30 4 1 4 5
M  V30 5 1 5 6
M  V30 6 1 6 7
M  V30 7 1 7 8
M  V30 8 1 8 9
M  V30 9 1 9 10
M  V30 10 1 2 11
M  V30 11 2 11 12
M  V30 12 1 12 13
M  V30 13 1 13 14
M  V30 14 2 14 15
M  V30 15 1 15 16
M  V30 16 2 16 17
M  V30 17 1 17 18
M  V30 18 2 18 19
M  V30 19 1 19 20
M  V30 20 1 20 21
M  V30 21 2 20 22
M  V30 22 1 10 4
M  V30 23 1 10 7
M  V30 24 1 15 11
M  V30 25 1 16 22
M  V30 26 1 3 23
M  V30 27 1 4 24
M  V30 28 1 5 25
M  V30 29 1 5 26
M  V30 30 1 6 27
M  V30 31 1 6 28
M  V30 32 1 7 29 CFG=1
M  V30 33 1 8 30
M  V30 34 1 8 31
M  V30 35 1 9 32
M  V30 36 1 9 33
M  V30 37 1 10 34 CFG=3
M  V30 38 1 12 35
M  V30 39 1 13 36
M  V30 40 1 17 37
M  V30 41 1 18 38
M  V30 42 1 19 39
M  V30 43 1 22 40
M  V30 END BOND
M  V30 BEGIN COLLECTION
M  V30 MDLV30/STERAC1 ATOMS=(2 7 10)
M  V30 END COLLECTION
M  V30 END CTAB
M  END
>  <_CXSMILES_Data>  (1) 
|&1:6,9,r|

$$$$
