
     RDKit          3D

 48 51  0  0  0  0  0  0  0  0999 V2000
   -0.3354    0.6635   -2.9302 C   0  0  0  0  0  0  0  0  0  0  0  0
   -0.5499   -0.4879   -1.9468 C   0  0  0  0  0  0  0  0  0  0  0  0
   -1.0260   -0.0645   -0.5324 C   0  0  0  0  0  0  0  0  0  0  0  0
   -2.4628    0.4908   -0.5089 C   0  0  0  0  0  0  0  0  0  0  0  0
   -2.5235    1.9160   -0.9578 C   0  0  0  0  0  0  0  0  0  0  0  0
   -3.6471    2.3950   -1.6509 C   0  0  0  0  0  0  0  0  0  0  0  0
   -3.7097    3.7328   -2.0480 C   0  0  0  0  0  0  0  0  0  0  0  0
   -2.6611    4.6019   -1.7417 C   0  0  0  0  0  0  0  0  0  0  0  0
   -1.5487    4.1350   -1.0366 C   0  0  0  0  0  0  0  0  0  0  0  0
   -1.4690    2.7877   -0.6467 C   0  0  0  0  0  0  0  0  0  0  0  0
   -0.2840    2.3163    0.1572 C   0  0  0  0  0  0  0  0  0  0  0  0
   -0.0615    0.8541    0.1176 N   0  0  0  0  0  0  0  0  0  0  0  0
    1.1368    0.3602    0.7772 C   0  0  0  0  0  0  0  0  0  0  0  0
    1.9647    1.1926    1.2444 O   0  0  0  0  0  0  0  0  0  0  0  0
    1.3928   -1.1176    1.0346 C   0  0  0  0  0  0  0  0  0  0  0  0
    2.9147   -1.4117    1.0091 C   0  0  0  0  0  0  0  0  0  0  0  0
    3.2475   -2.9087    0.9372 C   0  0  0  0  0  0  0  0  0  0  0  0
    3.0598   -3.5748    2.2641 C   0  0  0  0  0  0  0  0  0  0  0  0
    4.0336   -4.2323    2.9222 N   0  0  0  0  0  0  0  0  0  0  0  0
    3.4982   -4.6849    4.0479 N   0  0  0  0  0  0  0  0  0  0  0  0
    2.2077   -4.2975    4.0593 C   0  0  0  0  0  0  0  0  0  0  0  0
    1.9059   -3.5973    2.9521 N   0  0  0  0  0  0  0  0  0  0  0  0
    0.6169   -3.0216    2.5796 C   0  0  0  0  0  0  0  0  0  0  0  0
    0.7328   -1.5054    2.3779 C   0  0  0  0  0  0  0  0  0  0  0  0
    0.1081    0.2649   -3.8669 H   0  0  0  0  0  0  0  0  0  0  0  0
   -1.2989    1.1436   -3.1943 H   0  0  0  0  0  0  0  0  0  0  0  0
    0.3646    1.4162   -2.5128 H   0  0  0  0  0  0  0  0  0  0  0  0
    0.4112   -1.0354   -1.8610 H   0  0  0  0  0  0  0  0  0  0  0  0
   -1.2837   -1.1989   -2.3846 H   0  0  0  0  0  0  0  0  0  0  0  0
   -1.1042   -0.9947    0.0676 H   0  0  0  0  0  0  0  0  0  0  0  0
   -2.8506    0.4469    0.5323 H   0  0  0  0  0  0  0  0  0  0  0  0
   -3.1216   -0.1496   -1.1360 H   0  0  0  0  0  0  0  0  0  0  0  0
   -4.4717    1.7334   -1.8852 H   0  0  0  0  0  0  0  0  0  0  0  0
   -4.5744    4.0972   -2.5874 H   0  0  0  0  0  0  0  0  0  0  0  0
   -2.7137    5.6401   -2.0431 H   0  0  0  0  0  0  0  0  0  0  0  0
   -0.7501    4.8243   -0.7913 H   0  0  0  0  0  0  0  0  0  0  0  0
   -0.4306    2.6321    1.2125 H   0  0  0  0  0  0  0  0  0  0  0  0
    0.6241    2.8267   -0.2334 H   0  0  0  0  0  0  0  0  0  0  0  0
    0.9434   -1.7177    0.2219 H   0  0  0  0  0  0  0  0  0  0  0  0
    3.4186   -0.9528    1.8892 H   0  0  0  0  0  0  0  0  0  0  0  0
    3.3473   -0.9373    0.1002 H   0  0  0  0  0  0  0  0  0  0  0  0
    2.6190   -3.4150    0.1736 H   0  0  0  0  0  0  0  0  0  0  0  0
    4.3086   -3.0234    0.6263 H   0  0  0  0  0  0  0  0  0  0  0  0
    1.5104   -4.5244    4.8552 H   0  0  0  0  0  0  0  0  0  0  0  0
   -0.1221   -3.2171    3.3874 H   0  0  0  0  0  0  0  0  0  0  0  0
    0.2388   -3.5132    1.6573 H   0  0  0  0  0  0  0  0  0  0  0  0
    1.2881   -1.0516    3.2284 H   0  0  0  0  0  0  0  0  0  0  0  0
   -0.2992   -1.0905    2.4060 H   0  0  0  0  0  0  0  0  0  0  0  0
  1  2  1  0
  2  3  1  0
  3  4  1  0
  4  5  1  0
  5  6  2  0
  6  7  1  0
  7  8  2  0
  8  9  1  0
  9 10  2  0
 10 11  1  0
 11 12  1  0
 12 13  1  0
 13 14  2  0
 13 15  1  0
 15 16  1  0
 16 17  1  0
 17 18  1  0
 18 19  2  0
 19 20  1  0
 20 21  2  0
 21 22  1  0
 22 23  1  0
 23 24  1  0
 12  3  1  0
  5 10  1  0
 24 15  1  0
 22 18  1  0
  1 25  1  0
  1 26  1  0
  1 27  1  0
  2 28  1  0
  2 29  1  0
  3 30  1  0
  4 31  1  0
  4 32  1  0
  6 33  1  0
  7 34  1  0
  8 35  1  0
  9 36  1  0
 11 37  1  0
 11 38  1  0
 15 39  1  0
 16 40  1  0
 16 41  1  0
 17 42  1  0
 17 43  1  0
 21 44  1  0
 23 45  1  0
 23 46  1  0
 24 47  1  0
 24 48  1  0
M  END
$$$$
