
     RDKit          3D

 48 51  0  0  0  0  0  0  0  0999 V2000
    2.9093   -7.0376    1.9278 C   0  0  0  0  0  0  0  0  0  0  0  0
    1.9906   -6.6829    2.9545 O   0  0  0  0  0  0  0  0  0  0  0  0
    1.1406   -5.5773    2.8593 C   0  0  0  0  0  0  0  0  0  0  0  0
    0.2574   -5.2935    3.9228 C   0  0  0  0  0  0  0  0  0  0  0  0
   -0.6031   -4.1864    3.8437 C   0  0  0  0  0  0  0  0  0  0  0  0
   -0.5557   -3.3941    2.6996 C   0  0  0  0  0  0  0  0  0  0  0  0
   -1.3174   -2.2934    2.4797 N   0  0  0  0  0  0  0  0  0  0  0  0
   -1.0343   -1.7476    1.2697 C   0  0  0  0  0  0  0  0  0  0  0  0
   -1.6697   -0.5472    0.8086 N   0  0  0  0  0  0  0  0  0  0  0  0
   -1.5455   -0.0339   -0.5269 C   0  0  0  0  0  0  0  0  0  0  0  0
   -1.2337   -0.8100   -1.4709 O   0  0  0  0  0  0  0  0  0  0  0  0
   -1.8239    1.3532   -0.8052 N   0  0  0  0  0  0  0  0  0  0  0  0
   -1.5209    2.4033    0.1739 C   0  0  0  0  0  0  0  0  0  0  0  0
   -0.3505    3.2526   -0.3311 C   0  0  0  0  0  0  0  0  0  0  0  0
   -0.5961    3.7506   -1.7672 C   0  0  0  0  0  0  0  0  0  0  0  0
   -0.9672    2.6076   -2.7407 C   0  0  0  0  0  0  0  0  0  0  0  0
   -2.1442    1.7976   -2.1662 C   0  0  0  0  0  0  0  0  0  0  0  0
    0.1904    1.7363   -2.9984 N   0  0  0  0  0  0  0  0  0  0  0  0
    0.2217    0.6939   -3.9938 C   0  0  0  0  0  0  0  0  0  0  0  0
   -0.7385    0.6119   -5.0226 C   0  0  0  0  0  0  0  0  0  0  0  0
   -0.6753   -0.4174   -5.9673 C   0  0  0  0  0  0  0  0  0  0  0  0
    0.3441   -1.3695   -5.9012 C   0  0  0  0  0  0  0  0  0  0  0  0
    1.3056   -1.2927   -4.8917 C   0  0  0  0  0  0  0  0  0  0  0  0
    1.2473   -0.2656   -3.9452 C   0  0  0  0  0  0  0  0  0  0  0  0
    0.1853   -2.5985    0.4391 S   0  0  0  0  0  0  0  0  0  0  0  0
    0.3239   -3.7099    1.6847 C   0  0  0  0  0  0  0  0  0  0  0  0
    1.1594   -4.7748    1.7513 N   0  0  0  0  0  0  0  0  0  0  0  0
    2.3621   -7.2540    0.9859 H   0  0  0  0  0  0  0  0  0  0  0  0
    3.4676   -7.9454    2.2359 H   0  0  0  0  0  0  0  0  0  0  0  0
    3.6316   -6.2105    1.7613 H   0  0  0  0  0  0  0  0  0  0  0  0
    0.2416   -5.9268    4.8004 H   0  0  0  0  0  0  0  0  0  0  0  0
   -1.2846   -3.9563    4.6527 H   0  0  0  0  0  0  0  0  0  0  0  0
   -2.2850   -0.0383    1.4816 H   0  0  0  0  0  0  0  0  0  0  0  0
   -1.2519    1.9810    1.1642 H   0  0  0  0  0  0  0  0  0  0  0  0
   -2.4167    3.0474    0.3111 H   0  0  0  0  0  0  0  0  0  0  0  0
    0.5820    2.6504   -0.2905 H   0  0  0  0  0  0  0  0  0  0  0  0
   -0.2143    4.1267    0.3416 H   0  0  0  0  0  0  0  0  0  0  0  0
   -1.4232    4.4943   -1.7510 H   0  0  0  0  0  0  0  0  0  0  0  0
    0.3119    4.2757   -2.1353 H   0  0  0  0  0  0  0  0  0  0  0  0
   -1.2811    3.0836   -3.6942 H   0  0  0  0  0  0  0  0  0  0  0  0
   -2.4008    0.9396   -2.8218 H   0  0  0  0  0  0  0  0  0  0  0  0
   -3.0471    2.4457   -2.1309 H   0  0  0  0  0  0  0  0  0  0  0  0
    1.0520    1.8664   -2.4214 H   0  0  0  0  0  0  0  0  0  0  0  0
   -1.5355    1.3362   -5.1080 H   0  0  0  0  0  0  0  0  0  0  0  0
   -1.4176   -0.4759   -6.7531 H   0  0  0  0  0  0  0  0  0  0  0  0
    0.3903   -2.1652   -6.6335 H   0  0  0  0  0  0  0  0  0  0  0  0
    2.0965   -2.0298   -4.8416 H   0  0  0  0  0  0  0  0  0  0  0  0
    1.9979   -0.2227   -3.1660 H   0  0  0  0  0  0  0  0  0  0  0  0
  1  2  1  0
  2  3  1  0
  3  4  2  0
  4  5  1  0
  5  6  2  0
  6  7  1  0
  7  8  2  0
  8  9  1  0
  9 10  1  0
 10 11  2  0
 10 12  1  0
 12 13  1  0
 13 14  1  0
 14 15  1  0
 15 16  1  0
 16 17  1  0
 16 18  1  0
 18 19  1  0
 19 20  2  0
 20 21  1  0
 21 22  2  0
 22 23  1  0
 23 24  2  0
  8 25  1  0
 25 26  1  0
 26 27  2  0
  3 27  1  0
  6 26  1  0
 17 12  1  0
 19 24  1  0
  1 28  1  0
  1 29  1  0
  1 30  1  0
  4 31  1  0
  5 32  1  0
  9 33  1  0
 13 34  1  0
 13 35  1  0
 14 36  1  0
 14 37  1  0
 15 38  1  0
 15 39  1  0
 16 40  1  0
 17 41  1  0
 17 42  1  0
 18 43  1  0
 20 44  1  0
 21 45  1  0
 22 46  1  0
 23 47  1  0
 24 48  1  0
M  END
$$$$
