
     RDKit          3D

 51 54  0  0  0  0  0  0  0  0999 V2000
   -0.0644    2.0540    1.3416 O   0  0  0  0  0  0  0  0  0  0  0  0
   -0.1458    2.2192    0.0942 C   0  0  0  0  0  0  0  0  0  0  0  0
    0.3160    3.5170   -0.5038 C   0  0  0  0  0  0  0  0  0  0  0  0
    1.8514    3.5711   -0.6294 C   0  0  0  0  0  0  0  0  0  0  0  0
    2.3908    2.4913   -1.6152 C   0  0  0  0  0  0  0  0  0  0  0  0
    3.8334    2.8050   -2.0754 C   0  0  0  0  0  0  0  0  0  0  0  0
    4.7942    2.9348   -0.8856 C   0  0  0  0  0  0  0  0  0  0  0  0
    4.7497    4.4210   -0.5382 C   0  0  0  0  0  0  0  0  0  0  0  0
    3.7664    5.0095   -1.5592 C   0  0  0  0  0  0  0  0  0  0  0  0
    2.3142    5.0026   -1.0269 C   0  0  0  0  0  0  0  0  0  0  0  0
    3.8133    4.1172   -2.7122 N   0  0  0  0  0  0  0  0  0  0  0  0
   -0.5969    1.1536   -0.7576 N   0  0  0  0  0  0  0  0  0  0  0  0
   -1.1570   -0.0796   -0.2762 C   0  0  0  0  0  0  0  0  0  0  0  0
   -1.9933   -0.1144    0.8520 C   0  0  0  0  0  0  0  0  0  0  0  0
   -2.5431   -1.3231    1.2879 C   0  0  0  0  0  0  0  0  0  0  0  0
   -2.2766   -2.5185    0.5936 C   0  0  0  0  0  0  0  0  0  0  0  0
   -2.8061   -3.7529    1.0009 O   0  0  0  0  0  0  0  0  0  0  0  0
   -3.6456   -3.9379    2.1369 C   0  0  0  0  0  0  0  0  0  0  0  0
   -4.0011   -5.3905    2.2532 C   0  0  0  0  0  0  0  0  0  0  0  0
   -3.1680   -6.2747    2.9535 C   0  0  0  0  0  0  0  0  0  0  0  0
   -3.4900   -7.6316    3.0202 C   0  0  0  0  0  0  0  0  0  0  0  0
   -4.6375   -8.0948    2.3736 C   0  0  0  0  0  0  0  0  0  0  0  0
   -5.4262   -7.2293    1.6828 N   0  0  0  0  0  0  0  0  0  0  0  0
   -5.1345   -5.9031    1.6042 C   0  0  0  0  0  0  0  0  0  0  0  0
   -1.4592   -2.4784   -0.5460 C   0  0  0  0  0  0  0  0  0  0  0  0
   -1.1128   -3.9480   -1.4449 Cl  0  0  0  0  0  0  0  0  0  0  0  0
   -0.9115   -1.2664   -0.9803 C   0  0  0  0  0  0  0  0  0  0  0  0
   -0.1563    3.6640   -1.4996 H   0  0  0  0  0  0  0  0  0  0  0  0
   -0.0305    4.3465    0.1509 H   0  0  0  0  0  0  0  0  0  0  0  0
    2.2757    3.3558    0.3770 H   0  0  0  0  0  0  0  0  0  0  0  0
    2.3636    1.4903   -1.1321 H   0  0  0  0  0  0  0  0  0  0  0  0
    1.7427    2.4484   -2.5181 H   0  0  0  0  0  0  0  0  0  0  0  0
    4.1813    2.0251   -2.7887 H   0  0  0  0  0  0  0  0  0  0  0  0
    4.4925    2.2991   -0.0245 H   0  0  0  0  0  0  0  0  0  0  0  0
    5.8223    2.6496   -1.1996 H   0  0  0  0  0  0  0  0  0  0  0  0
    4.4251    4.5914    0.5116 H   0  0  0  0  0  0  0  0  0  0  0  0
    5.7555    4.8737   -0.6808 H   0  0  0  0  0  0  0  0  0  0  0  0
    4.0589    6.0435   -1.8478 H   0  0  0  0  0  0  0  0  0  0  0  0
    2.2324    5.6813   -0.1500 H   0  0  0  0  0  0  0  0  0  0  0  0
    1.6517    5.4043   -1.8254 H   0  0  0  0  0  0  0  0  0  0  0  0
    4.7239    4.2618   -3.2116 H   0  0  0  0  0  0  0  0  0  0  0  0
   -0.4125    1.2383   -1.7829 H   0  0  0  0  0  0  0  0  0  0  0  0
   -2.2443    0.7940    1.3831 H   0  0  0  0  0  0  0  0  0  0  0  0
   -3.1809   -1.3148    2.1610 H   0  0  0  0  0  0  0  0  0  0  0  0
   -4.5695   -3.3293    2.0252 H   0  0  0  0  0  0  0  0  0  0  0  0
   -3.1149   -3.6043    3.0554 H   0  0  0  0  0  0  0  0  0  0  0  0
   -2.2729   -5.9143    3.4452 H   0  0  0  0  0  0  0  0  0  0  0  0
   -2.8544   -8.3182    3.5642 H   0  0  0  0  0  0  0  0  0  0  0  0
   -4.8984   -9.1438    2.4162 H   0  0  0  0  0  0  0  0  0  0  0  0
   -5.7845   -5.2501    1.0361 H   0  0  0  0  0  0  0  0  0  0  0  0
   -0.2830   -1.2491   -1.8623 H   0  0  0  0  0  0  0  0  0  0  0  0
  1  2  2  0
  2  3  1  0
  3  4  1  0
  4  5  1  0
  5  6  1  0
  6  7  1  0
  7  8  1  0
  8  9  1  0
  9 10  1  0
  9 11  1  0
  2 12  1  0
 12 13  1  0
 13 14  2  0
 14 15  1  0
 15 16  2  0
 16 17  1  0
 17 18  1  0
 18 19  1  0
 19 20  2  0
 20 21  1  0
 21 22  2  0
 22 23  1  0
 23 24  2  0
 16 25  1  0
 25 26  1  0
 25 27  2  0
 10  4  1  0
 11  6  1  0
 13 27  1  0
 24 19  1  0
  3 28  1  0
  3 29  1  0
  4 30  1  0
  5 31  1  0
  5 32  1  0
  6 33  1  0
  7 34  1  0
  7 35  1  0
  8 36  1  0
  8 37  1  0
  9 38  1  0
 10 39  1  0
 10 40  1  0
 11 41  1  0
 12 42  1  0
 14 43  1  0
 15 44  1  0
 18 45  1  0
 18 46  1  0
 20 47  1  0
 21 48  1  0
 22 49  1  0
 24 50  1  0
 27 51  1  0
M  END
$$$$
