
     RDKit          3D

 47 50  0  0  0  0  0  0  0  0999 V2000
    1.7263   -2.3625    3.0456 C   0  0  0  0  0  0  0  0  0  0  0  0
    1.7047   -0.8754    3.2438 C   0  0  0  0  0  0  0  0  0  0  0  0
    1.8884   -0.3321    4.5229 C   0  0  0  0  0  0  0  0  0  0  0  0
    1.8428    1.0501    4.7168 C   0  0  0  0  0  0  0  0  0  0  0  0
    2.0453    1.5585    5.9587 F   0  0  0  0  0  0  0  0  0  0  0  0
    1.5904    1.9042    3.6369 C   0  0  0  0  0  0  0  0  0  0  0  0
    1.5696    3.2495    3.8323 N   0  0  0  0  0  0  0  0  0  0  0  0
    1.3380    4.1210    2.8162 C   0  0  0  0  0  0  0  0  0  0  0  0
    1.3323    5.4903    3.0603 O   0  0  0  0  0  0  0  0  0  0  0  0
    1.1022    3.6443    1.5264 C   0  0  0  0  0  0  0  0  0  0  0  0
    1.0935    2.2649    1.2814 C   0  0  0  0  0  0  0  0  0  0  0  0
    0.7989    1.7980   -0.0881 C   0  0  0  0  0  0  0  0  0  0  0  0
    1.5794    2.1185   -1.0247 O   0  0  0  0  0  0  0  0  0  0  0  0
   -0.3717    1.0127   -0.3696 N   0  0  0  0  0  0  0  0  0  0  0  0
   -1.5095    0.8981    0.5285 C   0  0  0  0  0  0  0  0  0  0  0  0
   -2.6138    0.2548   -0.2991 C   0  0  0  0  0  0  0  0  0  0  0  0
   -1.8967   -0.4277   -1.4720 C   0  0  0  0  0  0  0  0  0  0  0  0
   -0.5920    0.3511   -1.6430 C   0  0  0  0  0  0  0  0  0  0  0  0
   -2.7032   -0.4134   -2.7005 N   0  0  0  0  0  0  0  0  0  0  0  0
   -2.3270   -1.0824   -3.9210 C   0  0  0  0  0  0  0  0  0  0  0  0
   -1.2400   -1.9785   -3.9782 C   0  0  0  0  0  0  0  0  0  0  0  0
   -0.9069   -2.6094   -5.1811 C   0  0  0  0  0  0  0  0  0  0  0  0
   -1.6521   -2.3590   -6.3352 C   0  0  0  0  0  0  0  0  0  0  0  0
   -2.7349   -1.4788   -6.2887 C   0  0  0  0  0  0  0  0  0  0  0  0
   -3.0723   -0.8455   -5.0888 C   0  0  0  0  0  0  0  0  0  0  0  0
    1.3627    1.3706    2.3450 C   0  0  0  0  0  0  0  0  0  0  0  0
    1.4343   -0.0255    2.1608 C   0  0  0  0  0  0  0  0  0  0  0  0
    2.3770   -2.8519    3.8013 H   0  0  0  0  0  0  0  0  0  0  0  0
    2.1204   -2.6166    2.0385 H   0  0  0  0  0  0  0  0  0  0  0  0
    0.6953   -2.7623    3.1423 H   0  0  0  0  0  0  0  0  0  0  0  0
    2.0753   -0.9802    5.3703 H   0  0  0  0  0  0  0  0  0  0  0  0
    1.5005    5.8530    3.9911 H   0  0  0  0  0  0  0  0  0  0  0  0
    0.9074    4.3462    0.7240 H   0  0  0  0  0  0  0  0  0  0  0  0
   -1.8244    1.9014    0.8901 H   0  0  0  0  0  0  0  0  0  0  0  0
   -1.2481    0.2498    1.3911 H   0  0  0  0  0  0  0  0  0  0  0  0
   -3.2970    1.0547   -0.6608 H   0  0  0  0  0  0  0  0  0  0  0  0
   -3.1964   -0.4774    0.3011 H   0  0  0  0  0  0  0  0  0  0  0  0
   -1.6763   -1.4765   -1.1731 H   0  0  0  0  0  0  0  0  0  0  0  0
    0.2519   -0.3361   -1.8664 H   0  0  0  0  0  0  0  0  0  0  0  0
   -0.6805    1.1156   -2.4459 H   0  0  0  0  0  0  0  0  0  0  0  0
   -3.6064    0.1135   -2.7009 H   0  0  0  0  0  0  0  0  0  0  0  0
   -0.6500   -2.2049   -3.1025 H   0  0  0  0  0  0  0  0  0  0  0  0
   -0.0709   -3.2960   -5.2175 H   0  0  0  0  0  0  0  0  0  0  0  0
   -1.3922   -2.8491   -7.2646 H   0  0  0  0  0  0  0  0  0  0  0  0
   -3.3138   -1.2866   -7.1828 H   0  0  0  0  0  0  0  0  0  0  0  0
   -3.9141   -0.1647   -5.0704 H   0  0  0  0  0  0  0  0  0  0  0  0
    1.2851   -0.4622    1.1814 H   0  0  0  0  0  0  0  0  0  0  0  0
  1  2  1  0
  2  3  2  0
  3  4  1  0
  4  5  1  0
  4  6  2  0
  6  7  1  0
  7  8  2  0
  8  9  1  0
  8 10  1  0
 10 11  2  0
 11 12  1  0
 12 13  2  0
 12 14  1  0
 14 15  1  0
 15 16  1  0
 16 17  1  0
 17 18  1  0
 17 19  1  0
 19 20  1  0
 20 21  2  0
 21 22  1  0
 22 23  2  0
 23 24  1  0
 24 25  2  0
 11 26  1  0
 26 27  2  0
  2 27  1  0
  6 26  1  0
 18 14  1  0
 20 25  1  0
  1 28  1  0
  1 29  1  0
  1 30  1  0
  3 31  1  0
  9 32  1  0
 10 33  1  0
 15 34  1  0
 15 35  1  0
 16 36  1  0
 16 37  1  0
 17 38  1  0
 18 39  1  0
 18 40  1  0
 19 41  1  0
 21 42  1  0
 22 43  1  0
 23 44  1  0
 24 45  1  0
 25 46  1  0
 27 47  1  0
M  END
$$$$
