
     RDKit          3D

 34 37  0  0  0  0  0  0  0  0999 V2000
   -2.9928    0.8805   -1.0404 C   0  0  0  0  0  0  0  0  0  0  0  0
   -2.2188    0.1555   -2.1499 C   0  0  1  0  0  0  0  0  0  0  0  0
   -0.9298    0.8120   -2.4158 N   0  0  0  0  0  0  0  0  0  0  0  0
    0.1005    1.0311   -1.4345 C   0  0  0  0  0  0  0  0  0  0  0  0
   -0.0231    0.5659   -0.1531 N   0  0  0  0  0  0  0  0  0  0  0  0
    0.9558    0.7556    0.7854 C   0  0  0  0  0  0  0  0  0  0  0  0
    0.8022    0.2678    2.0868 C   0  0  0  0  0  0  0  0  0  0  0  0
    1.8158    0.4711    3.0310 C   0  0  0  0  0  0  0  0  0  0  0  0
    2.9836    1.1606    2.6789 C   0  0  0  0  0  0  0  0  0  0  0  0
    3.1488    1.6529    1.3793 C   0  0  0  0  0  0  0  0  0  0  0  0
    2.1369    1.4516    0.4311 C   0  0  0  0  0  0  0  0  0  0  0  0
    2.2291    1.8987   -0.8463 N   0  0  0  0  0  0  0  0  0  0  0  0
    3.2043    2.5628   -1.4354 N   0  0  0  0  0  0  0  0  0  0  0  0
    2.8401    2.7763   -2.6968 N   0  0  0  0  0  0  0  0  0  0  0  0
    1.6359    2.2560   -2.9329 N   0  0  0  0  0  0  0  0  0  0  0  0
    1.2758    1.7124   -1.7574 C   0  0  0  0  0  0  0  0  0  0  0  0
   -2.0569   -1.3201   -1.8524 C   0  0  0  0  0  0  0  0  0  0  0  0
   -3.1773   -2.1654   -1.8198 C   0  0  0  0  0  0  0  0  0  0  0  0
   -3.0138   -3.4882   -1.5543 N   0  0  0  0  0  0  0  0  0  0  0  0
   -1.7830   -4.0134   -1.3215 C   0  0  0  0  0  0  0  0  0  0  0  0
   -0.6646   -3.1807   -1.3592 C   0  0  0  0  0  0  0  0  0  0  0  0
   -0.8262   -1.8586   -1.6251 N   0  0  0  0  0  0  0  0  0  0  0  0
   -2.5649    0.6680   -0.0394 H   0  0  0  0  0  0  0  0  0  0  0  0
   -2.9741    1.9768   -1.2179 H   0  0  0  0  0  0  0  0  0  0  0  0
   -4.0532    0.5504   -1.0376 H   0  0  0  0  0  0  0  0  0  0  0  0
   -2.8312    0.2356   -3.0761 H   0  0  0  0  0  0  0  0  0  0  0  0
   -0.7659    1.1591   -3.3882 H   0  0  0  0  0  0  0  0  0  0  0  0
   -0.0967   -0.2667    2.3679 H   0  0  0  0  0  0  0  0  0  0  0  0
    1.6967    0.0935    4.0383 H   0  0  0  0  0  0  0  0  0  0  0  0
    3.7619    1.3129    3.4154 H   0  0  0  0  0  0  0  0  0  0  0  0
    4.0554    2.1837    1.1176 H   0  0  0  0  0  0  0  0  0  0  0  0
   -4.1704   -1.7775   -2.0060 H   0  0  0  0  0  0  0  0  0  0  0  0
   -1.6743   -5.0690   -1.1115 H   0  0  0  0  0  0  0  0  0  0  0  0
    0.3242   -3.5807   -1.1794 H   0  0  0  0  0  0  0  0  0  0  0  0
  1  2  1  0
  2  3  1  0
  3  4  1  0
  4  5  2  0
  5  6  1  0
  6  7  2  0
  7  8  1  0
  8  9  2  0
  9 10  1  0
 10 11  2  0
 11 12  1  0
 12 13  1  0
 13 14  2  0
 14 15  1  0
 15 16  2  0
  2 17  1  0
 17 18  2  0
 18 19  1  0
 19 20  2  0
 20 21  1  0
 21 22  2  0
 16  4  1  0
  6 11  1  0
 16 12  1  0
 17 22  1  0
  1 23  1  0
  1 24  1  0
  1 25  1  0
  2 26  1  6
  3 27  1  0
  7 28  1  0
  8 29  1  0
  9 30  1  0
 10 31  1  0
 18 32  1  0
 20 33  1  0
 21 34  1  0
M  END
$$$$
