
     RDKit          3D

 43 45  0  0  0  0  0  0  0  0999 V2000
   -3.6337   -1.6748    1.3191 C   0  0  0  0  0  0  0  0  0  0  0  0
   -4.4659   -0.1891    0.6772 S   0  0  0  0  0  0  0  0  0  0  0  0
   -3.4642    0.9419    1.6590 C   0  0  0  0  0  0  0  0  0  0  0  0
   -3.9308    1.2928    2.9333 C   0  0  0  0  0  0  0  0  0  0  0  0
   -3.1708    2.1196    3.7712 C   0  0  0  0  0  0  0  0  0  0  0  0
   -3.6942    2.5171    5.1197 C   0  0  0  0  0  0  0  0  0  0  0  0
   -1.9475    2.6241    3.3136 C   0  0  0  0  0  0  0  0  0  0  0  0
   -1.4755    2.2853    2.0441 C   0  0  0  0  0  0  0  0  0  0  0  0
   -2.2232    1.4462    1.1997 C   0  0  0  0  0  0  0  0  0  0  0  0
   -1.6890    1.1262   -0.1456 C   0  0  0  0  0  0  0  0  0  0  0  0
   -2.4725    1.0536   -1.1306 O   0  0  0  0  0  0  0  0  0  0  0  0
   -0.2843    0.8874   -0.3262 N   0  0  0  0  0  0  0  0  0  0  0  0
    0.3447    0.8407   -1.6160 C   0  0  0  0  0  0  0  0  0  0  0  0
   -0.0644    1.5274   -2.6956 N   0  0  0  0  0  0  0  0  0  0  0  0
    0.8221    1.3229   -3.6559 N   0  0  0  0  0  0  0  0  0  0  0  0
    1.7958    0.5273   -3.2336 N   0  0  0  0  0  0  0  0  0  0  0  0
    1.5317    0.2105   -1.9490 C   0  0  0  0  0  0  0  0  0  0  0  0
    2.3596   -0.6845   -1.1036 C   0  0  0  0  0  0  0  0  0  0  0  0
    1.8970   -1.0726    0.0029 O   0  0  0  0  0  0  0  0  0  0  0  0
    3.6727   -1.1309   -1.5010 N   0  0  0  0  0  0  0  0  0  0  0  0
    4.2923   -0.8888   -2.7946 C   0  0  0  0  0  0  0  0  0  0  0  0
    5.6056   -1.6608   -2.7788 C   0  0  0  0  0  0  0  0  0  0  0  0
    5.8779   -1.9941   -1.3157 C   0  0  0  0  0  0  0  0  0  0  0  0
    4.5345   -1.8866   -0.6070 C   0  0  0  0  0  0  0  0  0  0  0  0
   -3.7750   -1.7449    2.4180 H   0  0  0  0  0  0  0  0  0  0  0  0
   -4.0752   -2.5730    0.8408 H   0  0  0  0  0  0  0  0  0  0  0  0
   -2.5493   -1.6371    1.0828 H   0  0  0  0  0  0  0  0  0  0  0  0
   -4.8846    0.9098    3.2761 H   0  0  0  0  0  0  0  0  0  0  0  0
   -4.2866    3.4515    5.0249 H   0  0  0  0  0  0  0  0  0  0  0  0
   -2.8567    2.6889    5.8297 H   0  0  0  0  0  0  0  0  0  0  0  0
   -4.3422    1.7183    5.5404 H   0  0  0  0  0  0  0  0  0  0  0  0
   -1.3587    3.2836    3.9391 H   0  0  0  0  0  0  0  0  0  0  0  0
   -0.5310    2.6988    1.7130 H   0  0  0  0  0  0  0  0  0  0  0  0
    0.3017    0.7251    0.5220 H   0  0  0  0  0  0  0  0  0  0  0  0
   -0.8939    2.1547   -2.7815 H   0  0  0  0  0  0  0  0  0  0  0  0
    4.4857    0.1988   -2.9196 H   0  0  0  0  0  0  0  0  0  0  0  0
    3.6429   -1.2663   -3.6140 H   0  0  0  0  0  0  0  0  0  0  0  0
    5.4922   -2.6041   -3.3579 H   0  0  0  0  0  0  0  0  0  0  0  0
    6.4334   -1.0617   -3.2177 H   0  0  0  0  0  0  0  0  0  0  0  0
    6.3135   -3.0112   -1.2069 H   0  0  0  0  0  0  0  0  0  0  0  0
    6.5860   -1.2466   -0.8918 H   0  0  0  0  0  0  0  0  0  0  0  0
    4.1014   -2.8964   -0.4379 H   0  0  0  0  0  0  0  0  0  0  0  0
    4.6487   -1.3562    0.3638 H   0  0  0  0  0  0  0  0  0  0  0  0
  1  2  1  0
  2  3  1  0
  3  4  2  0
  4  5  1  0
  5  6  1  0
  5  7  2  0
  7  8  1  0
  8  9  2  0
  9 10  1  0
 10 11  2  0
 10 12  1  0
 12 13  1  0
 13 14  1  0
 14 15  1  0
 15 16  2  0
 16 17  1  0
 17 18  1  0
 18 19  2  0
 18 20  1  0
 20 21  1  0
 21 22  1  0
 22 23  1  0
 23 24  1  0
  3  9  1  0
 13 17  2  0
 24 20  1  0
  1 25  1  0
  1 26  1  0
  1 27  1  0
  4 28  1  0
  6 29  1  0
  6 30  1  0
  6 31  1  0
  7 32  1  0
  8 33  1  0
 12 34  1  0
 14 35  1  0
 21 36  1  0
 21 37  1  0
 22 38  1  0
 22 39  1  0
 23 40  1  0
 23 41  1  0
 24 42  1  0
 24 43  1  0
M  END
$$$$
