
     RDKit          3D

 52 55  0  0  0  0  0  0  0  0999 V2000
   -1.4186   -0.2874    1.5512 C   0  0  0  0  0  0  0  0  0  0  0  0
   -2.4773    0.7050    1.3047 N   0  0  0  0  0  0  0  0  0  0  0  0
   -3.8220    0.0866    1.1871 C   0  0  0  0  0  0  0  0  0  0  0  0
   -4.3964    0.1193   -0.2404 C   0  0  0  0  0  0  0  0  0  0  0  0
   -3.2963   -0.1459   -1.2661 C   0  0  0  0  0  0  0  0  0  0  0  0
   -2.1495    0.9074   -1.2102 C   0  0  0  0  0  0  0  0  0  0  0  0
   -2.1443    1.6142    0.1889 C   0  0  0  0  0  0  0  0  0  0  0  0
   -0.8310    0.2909   -1.5605 N   0  0  0  0  0  0  0  0  0  0  0  0
    0.2963    1.2606   -1.4401 C   0  0  0  0  0  0  0  0  0  0  0  0
    1.5208    0.9232   -2.3171 C   0  0  0  0  0  0  0  0  0  0  0  0
    1.5936   -0.5206   -2.5683 N   0  0  0  0  0  0  0  0  0  0  0  0
    0.3980   -1.1908   -3.0900 C   0  0  0  0  0  0  0  0  0  0  0  0
   -0.8437   -0.3105   -2.9159 C   0  0  0  0  0  0  0  0  0  0  0  0
    2.8205   -1.2729   -2.4455 C   0  0  0  0  0  0  0  0  0  0  0  0
    2.9761   -2.3209   -3.1299 O   0  0  0  0  0  0  0  0  0  0  0  0
    3.9035   -0.8878   -1.4739 C   0  0  0  0  0  0  0  0  0  0  0  0
    3.3732   -0.8907   -0.0727 C   0  0  0  0  0  0  0  0  0  0  0  0
    3.1088   -2.0598    0.6374 C   0  0  0  0  0  0  0  0  0  0  0  0
    2.4440   -1.6207    2.1181 S   0  0  0  0  0  0  0  0  0  0  0  0
    2.5220    0.0281    1.7936 C   0  0  0  0  0  0  0  0  0  0  0  0
    3.0430    0.2617    0.5702 N   0  0  0  0  0  0  0  0  0  0  0  0
    2.0287    1.0911    2.6772 C   0  0  0  0  0  0  0  0  0  0  0  0
    1.9818    2.4447    2.3680 C   0  0  0  0  0  0  0  0  0  0  0  0
    1.4156    3.2229    3.3847 C   0  0  0  0  0  0  0  0  0  0  0  0
    1.0138    2.4875    4.4924 C   0  0  0  0  0  0  0  0  0  0  0  0
    1.3607    0.8674    4.2051 S   0  0  0  0  0  0  0  0  0  0  0  0
   -1.3867   -1.0587    0.7536 H   0  0  0  0  0  0  0  0  0  0  0  0
   -0.4301    0.2099    1.6128 H   0  0  0  0  0  0  0  0  0  0  0  0
   -1.5950   -0.7887    2.5265 H   0  0  0  0  0  0  0  0  0  0  0  0
   -4.5188    0.6343    1.8563 H   0  0  0  0  0  0  0  0  0  0  0  0
   -3.8158   -0.9686    1.5443 H   0  0  0  0  0  0  0  0  0  0  0  0
   -4.8603    1.1098   -0.4419 H   0  0  0  0  0  0  0  0  0  0  0  0
   -5.1926   -0.6503   -0.3382 H   0  0  0  0  0  0  0  0  0  0  0  0
   -3.7546   -0.1442   -2.2792 H   0  0  0  0  0  0  0  0  0  0  0  0
   -2.8966   -1.1668   -1.0790 H   0  0  0  0  0  0  0  0  0  0  0  0
   -2.3823    1.6955   -1.9637 H   0  0  0  0  0  0  0  0  0  0  0  0
   -2.9063    2.4246    0.1676 H   0  0  0  0  0  0  0  0  0  0  0  0
   -1.2072    2.1577    0.4154 H   0  0  0  0  0  0  0  0  0  0  0  0
    0.6472    1.2566   -0.3877 H   0  0  0  0  0  0  0  0  0  0  0  0
   -0.0321    2.2942   -1.6930 H   0  0  0  0  0  0  0  0  0  0  0  0
    2.4374    1.3185   -1.8385 H   0  0  0  0  0  0  0  0  0  0  0  0
    1.4256    1.4451   -3.2942 H   0  0  0  0  0  0  0  0  0  0  0  0
    0.5397   -1.4343   -4.1650 H   0  0  0  0  0  0  0  0  0  0  0  0
    0.2388   -2.1376   -2.5280 H   0  0  0  0  0  0  0  0  0  0  0  0
   -1.7225   -0.9645   -3.0822 H   0  0  0  0  0  0  0  0  0  0  0  0
   -0.8678    0.4837   -3.6965 H   0  0  0  0  0  0  0  0  0  0  0  0
    4.7445   -1.6123   -1.5395 H   0  0  0  0  0  0  0  0  0  0  0  0
    4.3210    0.1069   -1.7341 H   0  0  0  0  0  0  0  0  0  0  0  0
    3.2807   -3.0701    0.2907 H   0  0  0  0  0  0  0  0  0  0  0  0
    2.3345    2.8599    1.4328 H   0  0  0  0  0  0  0  0  0  0  0  0
    1.2972    4.2957    3.3124 H   0  0  0  0  0  0  0  0  0  0  0  0
    0.5518    2.8899    5.3836 H   0  0  0  0  0  0  0  0  0  0  0  0
  1  2  1  0
  2  3  1  0
  3  4  1  0
  4  5  1  0
  5  6  1  0
  6  7  1  0
  6  8  1  0
  8  9  1  0
  9 10  1  0
 10 11  1  0
 11 12  1  0
 12 13  1  0
 11 14  1  0
 14 15  2  0
 14 16  1  0
 16 17  1  0
 17 18  2  0
 18 19  1  0
 19 20  1  0
 20 21  2  0
 20 22  1  0
 22 23  2  0
 23 24  1  0
 24 25  2  0
 25 26  1  0
  7  2  1  0
 13  8  1  0
 21 17  1  0
 26 22  1  0
  1 27  1  0
  1 28  1  0
  1 29  1  0
  3 30  1  0
  3 31  1  0
  4 32  1  0
  4 33  1  0
  5 34  1  0
  5 35  1  0
  6 36  1  0
  7 37  1  0
  7 38  1  0
  9 39  1  0
  9 40  1  0
 10 41  1  0
 10 42  1  0
 12 43  1  0
 12 44  1  0
 13 45  1  0
 13 46  1  0
 16 47  1  0
 16 48  1  0
 18 49  1  0
 23 50  1  0
 24 51  1  0
 25 52  1  0
M  END
$$$$
