
     RDKit          3D

 47 50  0  0  0  0  0  0  0  0999 V2000
   -1.1122    0.6211    2.6964 O   0  0  0  0  0  0  0  0  0  0  0  0
   -1.1163   -0.1258    1.6797 C   0  0  0  0  0  0  0  0  0  0  0  0
    0.1170   -0.4262    1.0039 N   0  0  0  0  0  0  0  0  0  0  0  0
    1.3330    0.3208    1.1824 C   0  0  0  0  0  0  0  0  0  0  0  0
    1.3134    1.7086    1.4062 C   0  0  0  0  0  0  0  0  0  0  0  0
    2.5092    2.4177    1.5375 C   0  0  0  0  0  0  0  0  0  0  0  0
    3.7341    1.7548    1.4386 C   0  0  0  0  0  0  0  0  0  0  0  0
    3.7746    0.3690    1.2061 C   0  0  0  0  0  0  0  0  0  0  0  0
    2.5678   -0.3364    1.0631 C   0  0  0  0  0  0  0  0  0  0  0  0
    5.0971   -0.3531    1.0647 C   0  0  0  0  0  0  0  0  0  0  0  0
    5.8497    0.0593   -0.2272 C   0  0  0  0  0  0  0  0  0  0  0  0
    7.1761    0.7077    0.2036 C   0  0  0  0  0  0  0  0  0  0  0  0
    7.1615    0.5725    1.6732 C   0  0  0  0  0  0  0  0  0  0  0  0
    8.0997    0.9490    2.4237 O   0  0  0  0  0  0  0  0  0  0  0  0
    5.9804   -0.0170    2.1667 N   0  0  0  0  0  0  0  0  0  0  0  0
   -2.3870   -0.7193    1.2101 C   0  0  0  0  0  0  0  0  0  0  0  0
   -3.5869   -0.5138    1.9104 C   0  0  0  0  0  0  0  0  0  0  0  0
   -4.7678   -1.0857    1.4337 C   0  0  0  0  0  0  0  0  0  0  0  0
   -4.7591   -1.8425    0.2594 C   0  0  0  0  0  0  0  0  0  0  0  0
   -3.5379   -2.0399   -0.4053 C   0  0  0  0  0  0  0  0  0  0  0  0
   -2.3989   -1.4777    0.0787 N   0  0  0  0  0  0  0  0  0  0  0  0
   -5.9571   -2.4179   -0.1892 O   0  0  0  0  0  0  0  0  0  0  0  0
   -6.2780   -2.6866   -1.5283 C   0  0  0  0  0  0  0  0  0  0  0  0
   -7.1238   -3.7660   -1.8145 C   0  0  0  0  0  0  0  0  0  0  0  0
   -7.4793   -4.0549   -3.1359 C   0  0  0  0  0  0  0  0  0  0  0  0
   -7.0016   -3.2573   -4.1798 C   0  0  0  0  0  0  0  0  0  0  0  0
   -6.1723   -2.1670   -3.9028 C   0  0  0  0  0  0  0  0  0  0  0  0
   -5.8143   -1.8763   -2.5823 C   0  0  0  0  0  0  0  0  0  0  0  0
    0.1577   -1.2853    0.4098 H   0  0  0  0  0  0  0  0  0  0  0  0
    0.3780    2.2504    1.4507 H   0  0  0  0  0  0  0  0  0  0  0  0
    2.4868    3.4870    1.7038 H   0  0  0  0  0  0  0  0  0  0  0  0
    4.6510    2.3230    1.5320 H   0  0  0  0  0  0  0  0  0  0  0  0
    2.5849   -1.4018    0.8671 H   0  0  0  0  0  0  0  0  0  0  0  0
    4.9426   -1.4552    1.0647 H   0  0  0  0  0  0  0  0  0  0  0  0
    6.0575   -0.8423   -0.8443 H   0  0  0  0  0  0  0  0  0  0  0  0
    5.2610    0.7696   -0.8495 H   0  0  0  0  0  0  0  0  0  0  0  0
    7.2031    1.7825   -0.0772 H   0  0  0  0  0  0  0  0  0  0  0  0
    8.0471    0.1699   -0.2281 H   0  0  0  0  0  0  0  0  0  0  0  0
    5.7829   -0.2076    3.1745 H   0  0  0  0  0  0  0  0  0  0  0  0
   -3.6125    0.0782    2.8169 H   0  0  0  0  0  0  0  0  0  0  0  0
   -5.6942   -0.9332    1.9730 H   0  0  0  0  0  0  0  0  0  0  0  0
   -3.4851   -2.6541   -1.2939 H   0  0  0  0  0  0  0  0  0  0  0  0
   -7.5002   -4.3863   -1.0106 H   0  0  0  0  0  0  0  0  0  0  0  0
   -8.1271   -4.8953   -3.3504 H   0  0  0  0  0  0  0  0  0  0  0  0
   -7.2793   -3.4803   -5.2020 H   0  0  0  0  0  0  0  0  0  0  0  0
   -5.8136   -1.5419   -4.7106 H   0  0  0  0  0  0  0  0  0  0  0  0
   -5.1959   -1.0109   -2.3826 H   0  0  0  0  0  0  0  0  0  0  0  0
  1  2  2  0
  2  3  1  0
  3  4  1  0
  4  5  2  0
  5  6  1  0
  6  7  2  0
  7  8  1  0
  8  9  2  0
  8 10  1  0
 10 11  1  0
 11 12  1  0
 12 13  1  0
 13 14  2  0
 13 15  1  0
  2 16  1  0
 16 17  2  0
 17 18  1  0
 18 19  2  0
 19 20  1  0
 20 21  2  0
 19 22  1  0
 22 23  1  0
 23 24  2  0
 24 25  1  0
 25 26  2  0
 26 27  1  0
 27 28  2  0
  4  9  1  0
 15 10  1  0
 16 21  1  0
 23 28  1  0
  3 29  1  0
  5 30  1  0
  6 31  1  0
  7 32  1  0
  9 33  1  0
 10 34  1  0
 11 35  1  0
 11 36  1  0
 12 37  1  0
 12 38  1  0
 15 39  1  0
 17 40  1  0
 18 41  1  0
 20 42  1  0
 24 43  1  0
 25 44  1  0
 26 45  1  0
 27 46  1  0
 28 47  1  0
M  END
$$$$
