
     RDKit          3D

 46 47  0  0  0  0  0  0  0  0999 V2000
    1.0879    0.8700    3.1208 C   0  0  0  0  0  0  0  0  0  0  0  0
    0.9277    1.9293    2.0424 C   0  0  0  0  0  0  0  0  0  0  0  0
    0.9128    1.3045    0.7640 O   0  0  0  0  0  0  0  0  0  0  0  0
    0.6789    2.0076   -0.4215 C   0  0  0  0  0  0  0  0  0  0  0  0
    0.4700    3.2505   -0.3934 O   0  0  0  0  0  0  0  0  0  0  0  0
    0.6729    1.2734   -1.7010 C   0  0  0  0  0  0  0  0  0  0  0  0
    1.0218   -0.0588   -1.8287 C   0  0  0  0  0  0  0  0  0  0  0  0
    0.8477   -0.3705   -3.1591 C   0  0  0  0  0  0  0  0  0  0  0  0
    0.4006    0.7642   -3.7993 C   0  0  0  0  0  0  0  0  0  0  0  0
    0.2962    1.7688   -2.9059 N   0  0  0  0  0  0  0  0  0  0  0  0
   -0.1577    3.1226   -3.2119 C   0  0  0  0  0  0  0  0  0  0  0  0
    1.0761   -1.9542   -3.8735 S   0  0  0  0  0  0  0  0  0  0  0  0
    0.7740   -1.9121   -5.3446 O   0  0  0  0  0  0  0  0  0  0  0  0
    2.5059   -2.3714   -3.6771 O   0  0  0  0  0  0  0  0  0  0  0  0
    0.0284   -3.0932   -3.0934 N   0  0  0  0  0  0  0  0  0  0  0  0
   -1.3101   -2.7515   -2.7004 C   0  0  0  0  0  0  0  0  0  0  0  0
   -2.1416   -2.0697   -3.6055 C   0  0  0  0  0  0  0  0  0  0  0  0
   -3.4673   -1.7845   -3.2780 C   0  0  0  0  0  0  0  0  0  0  0  0
   -3.9839   -2.1815   -2.0458 C   0  0  0  0  0  0  0  0  0  0  0  0
   -5.2756   -1.9123   -1.7349 F   0  0  0  0  0  0  0  0  0  0  0  0
   -3.1703   -2.8492   -1.1296 C   0  0  0  0  0  0  0  0  0  0  0  0
   -1.8255   -3.1293   -1.4336 C   0  0  0  0  0  0  0  0  0  0  0  0
   -0.9647   -3.7552   -0.3598 C   0  0  0  0  0  0  0  0  0  0  0  0
   -0.7173   -2.6273    1.0095 S   0  0  0  0  0  0  0  0  0  0  0  0
    0.9078   -2.8726    1.6920 C   0  0  0  0  0  0  0  0  0  0  0  0
   -0.8493   -1.2013    0.5525 O   0  0  0  0  0  0  0  0  0  0  0  0
   -1.7441   -2.8994    2.0727 O   0  0  0  0  0  0  0  0  0  0  0  0
    0.2374    0.1587    3.0758 H   0  0  0  0  0  0  0  0  0  0  0  0
    1.1052    1.3515    4.1204 H   0  0  0  0  0  0  0  0  0  0  0  0
    2.0365    0.3133    2.9688 H   0  0  0  0  0  0  0  0  0  0  0  0
    1.7745    2.6481    2.0982 H   0  0  0  0  0  0  0  0  0  0  0  0
   -0.0273    2.4742    2.2069 H   0  0  0  0  0  0  0  0  0  0  0  0
    1.3523   -0.7287   -1.0458 H   0  0  0  0  0  0  0  0  0  0  0  0
    0.1544    0.8463   -4.8496 H   0  0  0  0  0  0  0  0  0  0  0  0
   -0.4407    3.2070   -4.2828 H   0  0  0  0  0  0  0  0  0  0  0  0
   -1.0449    3.3722   -2.5940 H   0  0  0  0  0  0  0  0  0  0  0  0
    0.6580    3.8469   -3.0078 H   0  0  0  0  0  0  0  0  0  0  0  0
    0.4080   -4.0438   -2.8920 H   0  0  0  0  0  0  0  0  0  0  0  0
   -1.7709   -1.7773   -4.5791 H   0  0  0  0  0  0  0  0  0  0  0  0
   -4.0982   -1.2648   -3.9878 H   0  0  0  0  0  0  0  0  0  0  0  0
   -3.5833   -3.1331   -0.1689 H   0  0  0  0  0  0  0  0  0  0  0  0
   -1.4592   -4.6755    0.0174 H   0  0  0  0  0  0  0  0  0  0  0  0
    0.0310   -4.0579   -0.7350 H   0  0  0  0  0  0  0  0  0  0  0  0
    1.6705   -2.5846    0.9410 H   0  0  0  0  0  0  0  0  0  0  0  0
    1.0293   -2.2507    2.6016 H   0  0  0  0  0  0  0  0  0  0  0  0
    1.0402   -3.9421    1.9575 H   0  0  0  0  0  0  0  0  0  0  0  0
  1  2  1  0
  2  3  1  0
  3  4  1  0
  4  5  2  0
  4  6  1  0
  6  7  2  0
  7  8  1  0
  8  9  2  0
  9 10  1  0
 10 11  1  0
  8 12  1  0
 12 13  2  0
 12 14  2  0
 12 15  1  0
 15 16  1  0
 16 17  2  0
 17 18  1  0
 18 19  2  0
 19 20  1  0
 19 21  1  0
 21 22  2  0
 22 23  1  0
 23 24  1  0
 24 25  1  0
 24 26  2  0
 24 27  2  0
 10  6  1  0
 16 22  1  0
  1 28  1  0
  1 29  1  0
  1 30  1  0
  2 31  1  0
  2 32  1  0
  7 33  1  0
  9 34  1  0
 11 35  1  0
 11 36  1  0
 11 37  1  0
 15 38  1  0
 17 39  1  0
 18 40  1  0
 21 41  1  0
 23 42  1  0
 23 43  1  0
 25 44  1  0
 25 45  1  0
 25 46  1  0
M  END
$$$$
