
     RDKit          3D

 41 43  0  0  0  0  0  0  0  0999 V2000
   -3.4237    2.5303    3.8854 C   0  0  0  0  0  0  0  0  0  0  0  0
   -2.6894    3.1892    2.8586 O   0  0  0  0  0  0  0  0  0  0  0  0
   -1.7057    2.5743    2.0700 C   0  0  0  0  0  0  0  0  0  0  0  0
   -1.0650    3.3394    1.0890 C   0  0  0  0  0  0  0  0  0  0  0  0
   -0.0820    2.7717    0.2731 C   0  0  0  0  0  0  0  0  0  0  0  0
    0.2785    1.4245    0.4298 C   0  0  0  0  0  0  0  0  0  0  0  0
   -0.3594    0.6557    1.4177 C   0  0  0  0  0  0  0  0  0  0  0  0
   -1.3450    1.2233    2.2301 C   0  0  0  0  0  0  0  0  0  0  0  0
    1.2990    0.8197   -0.4491 C   0  0  0  0  0  0  0  0  0  0  0  0
    1.6970   -0.4666   -0.3541 N   0  0  0  0  0  0  0  0  0  0  0  0
    2.5988   -0.5838   -1.3458 C   0  0  0  0  0  0  0  0  0  0  0  0
    2.7100    0.6151   -2.0122 C   0  0  0  0  0  0  0  0  0  0  0  0
    1.8998    1.4629   -1.4280 O   0  0  0  0  0  0  0  0  0  0  0  0
    3.2406   -1.8810   -1.7344 C   0  0  0  0  0  0  0  0  0  0  0  0
    2.4299   -2.6080   -2.8171 C   0  0  0  0  0  0  0  0  0  0  0  0
    1.0153   -2.7081   -2.4536 N   0  0  0  0  0  0  0  0  0  0  0  0
    0.5653   -3.4402   -1.3032 C   0  0  0  0  0  0  0  0  0  0  0  0
    1.2851   -4.3663   -0.8388 O   0  0  0  0  0  0  0  0  0  0  0  0
   -0.7243   -3.1141   -0.6436 C   0  0  0  0  0  0  0  0  0  0  0  0
   -1.3786   -1.8891   -0.8747 C   0  0  0  0  0  0  0  0  0  0  0  0
   -2.5393   -1.5971   -0.2293 N   0  0  0  0  0  0  0  0  0  0  0  0
   -3.1072   -2.4619    0.6507 C   0  0  0  0  0  0  0  0  0  0  0  0
   -2.4956   -3.6868    0.9176 C   0  0  0  0  0  0  0  0  0  0  0  0
   -3.0547   -4.5527    1.7984 F   0  0  0  0  0  0  0  0  0  0  0  0
   -1.3010   -4.0113    0.2720 C   0  0  0  0  0  0  0  0  0  0  0  0
   -4.0016    1.6835    3.4582 H   0  0  0  0  0  0  0  0  0  0  0  0
   -2.7327    2.1627    4.6733 H   0  0  0  0  0  0  0  0  0  0  0  0
   -4.1332    3.2499    4.3426 H   0  0  0  0  0  0  0  0  0  0  0  0
   -1.3335    4.3799    0.9559 H   0  0  0  0  0  0  0  0  0  0  0  0
    0.3930    3.3855   -0.4820 H   0  0  0  0  0  0  0  0  0  0  0  0
   -0.1034   -0.3871    1.5579 H   0  0  0  0  0  0  0  0  0  0  0  0
   -1.8209    0.6027    2.9770 H   0  0  0  0  0  0  0  0  0  0  0  0
    3.3337    0.8346   -2.8685 H   0  0  0  0  0  0  0  0  0  0  0  0
    4.2677   -1.6883   -2.1123 H   0  0  0  0  0  0  0  0  0  0  0  0
    3.3300   -2.5276   -0.8354 H   0  0  0  0  0  0  0  0  0  0  0  0
    2.5227   -2.0493   -3.7740 H   0  0  0  0  0  0  0  0  0  0  0  0
    2.8479   -3.6248   -2.9781 H   0  0  0  0  0  0  0  0  0  0  0  0
    0.3200   -2.2166   -3.0579 H   0  0  0  0  0  0  0  0  0  0  0  0
   -0.9613   -1.1478   -1.5413 H   0  0  0  0  0  0  0  0  0  0  0  0
   -4.0316   -2.1952    1.1455 H   0  0  0  0  0  0  0  0  0  0  0  0
   -0.8299   -4.9626    0.4865 H   0  0  0  0  0  0  0  0  0  0  0  0
  1  2  1  0
  2  3  1  0
  3  4  2  0
  4  5  1  0
  5  6  2  0
  6  7  1  0
  7  8  2  0
  6  9  1  0
  9 10  2  0
 10 11  1  0
 11 12  2  0
 12 13  1  0
 11 14  1  0
 14 15  1  0
 15 16  1  0
 16 17  1  0
 17 18  2  0
 17 19  1  0
 19 20  2  0
 20 21  1  0
 21 22  2  0
 22 23  1  0
 23 24  1  0
 23 25  2  0
  3  8  1  0
 13  9  1  0
 25 19  1  0
  1 26  1  0
  1 27  1  0
  1 28  1  0
  4 29  1  0
  5 30  1  0
  7 31  1  0
  8 32  1  0
 12 33  1  0
 14 34  1  0
 14 35  1  0
 15 36  1  0
 15 37  1  0
 16 38  1  0
 20 39  1  0
 22 40  1  0
 25 41  1  0
M  END
$$$$
