
     RDKit          3D

 41 43  0  0  0  0  0  0  0  0999 V2000
   -2.1351    1.5484    2.7012 C   0  0  0  0  0  0  0  0  0  0  0  0
   -1.4928    0.3318    2.2160 N   0  0  0  0  0  0  0  0  0  0  0  0
   -1.8832   -0.8833    2.5646 N   0  0  0  0  0  0  0  0  0  0  0  0
   -1.0643   -1.7702    1.9608 C   0  0  0  0  0  0  0  0  0  0  0  0
   -0.1175   -1.0872    1.2099 C   0  0  0  0  0  0  0  0  0  0  0  0
   -0.4266    0.2462    1.3921 C   0  0  0  0  0  0  0  0  0  0  0  0
    0.3354    1.3912    0.8547 C   0  0  0  0  0  0  0  0  0  0  0  0
    0.5180    2.4002    1.5877 O   0  0  0  0  0  0  0  0  0  0  0  0
    0.8818    1.3733   -0.4764 N   0  0  0  0  0  0  0  0  0  0  0  0
    1.9322    2.2854   -0.9012 C   0  0  0  0  0  0  0  0  0  0  0  0
    1.9354    2.2377   -2.4253 C   0  0  0  0  0  0  0  0  0  0  0  0
    1.1745    0.9521   -2.8058 C   0  0  0  0  0  0  0  0  0  0  0  0
    2.1543   -0.1496   -2.9648 C   0  0  0  0  0  0  0  0  0  0  0  0
    2.9193   -1.0095   -3.0874 N   0  0  0  0  0  0  0  0  0  0  0  0
    0.2794    0.6533   -1.5895 C   0  0  0  0  0  0  0  0  0  0  0  0
    0.3595    1.1327   -4.0790 C   0  0  0  0  0  0  0  0  0  0  0  0
   -0.6604    2.1327   -4.1600 N   0  0  0  0  0  0  0  0  0  0  0  0
    0.5735    0.4026   -5.0859 O   0  0  0  0  0  0  0  0  0  0  0  0
   -1.1825   -3.2396    2.1238 C   0  0  0  0  0  0  0  0  0  0  0  0
   -2.1601   -3.7738    2.9844 C   0  0  0  0  0  0  0  0  0  0  0  0
   -2.2838   -5.1570    3.1467 C   0  0  0  0  0  0  0  0  0  0  0  0
   -1.4362   -6.0230    2.4526 C   0  0  0  0  0  0  0  0  0  0  0  0
   -1.5582   -7.3639    2.6113 F   0  0  0  0  0  0  0  0  0  0  0  0
   -0.4634   -5.5064    1.5939 C   0  0  0  0  0  0  0  0  0  0  0  0
   -0.3349   -4.1238    1.4278 C   0  0  0  0  0  0  0  0  0  0  0  0
   -2.3050    2.2506    1.8578 H   0  0  0  0  0  0  0  0  0  0  0  0
   -1.4911    2.0319    3.4651 H   0  0  0  0  0  0  0  0  0  0  0  0
   -3.1166    1.3053    3.1608 H   0  0  0  0  0  0  0  0  0  0  0  0
    0.7124   -1.4936    0.6489 H   0  0  0  0  0  0  0  0  0  0  0  0
    1.7248    3.3198   -0.5497 H   0  0  0  0  0  0  0  0  0  0  0  0
    2.9076    1.9394   -0.4963 H   0  0  0  0  0  0  0  0  0  0  0  0
    2.9744    2.2611   -2.8247 H   0  0  0  0  0  0  0  0  0  0  0  0
    1.4130    3.1421   -2.8066 H   0  0  0  0  0  0  0  0  0  0  0  0
   -0.7589    1.0229   -1.7306 H   0  0  0  0  0  0  0  0  0  0  0  0
    0.2243   -0.4356   -1.3815 H   0  0  0  0  0  0  0  0  0  0  0  0
   -0.8715    2.7609   -3.3535 H   0  0  0  0  0  0  0  0  0  0  0  0
   -1.2126    2.2474   -5.0386 H   0  0  0  0  0  0  0  0  0  0  0  0
   -2.8288   -3.1233    3.5339 H   0  0  0  0  0  0  0  0  0  0  0  0
   -3.0385   -5.5566    3.8119 H   0  0  0  0  0  0  0  0  0  0  0  0
    0.1926   -6.1775    1.0543 H   0  0  0  0  0  0  0  0  0  0  0  0
    0.4247   -3.7563    0.7522 H   0  0  0  0  0  0  0  0  0  0  0  0
  1  2  1  0
  2  3  1  0
  3  4  2  0
  4  5  1  0
  5  6  2  0
  6  7  1  0
  7  8  2  0
  7  9  1  0
  9 10  1  0
 10 11  1  0
 11 12  1  0
 12 13  1  0
 13 14  3  0
 12 15  1  0
 12 16  1  0
 16 17  1  0
 16 18  2  0
  4 19  1  0
 19 20  2  0
 20 21  1  0
 21 22  2  0
 22 23  1  0
 22 24  1  0
 24 25  2  0
  6  2  1  0
 15  9  1  0
 19 25  1  0
  1 26  1  0
  1 27  1  0
  1 28  1  0
  5 29  1  0
 10 30  1  0
 10 31  1  0
 11 32  1  0
 11 33  1  0
 15 34  1  0
 15 35  1  0
 17 36  1  0
 17 37  1  0
 20 38  1  0
 21 39  1  0
 24 40  1  0
 25 41  1  0
M  END
$$$$
