
     RDKit          3D

 47 50  0  0  0  0  0  0  0  0999 V2000
   -1.2296   -3.2465    1.6456 O   0  0  0  0  0  0  0  0  0  0  0  0
   -1.2355   -2.0737    1.1822 C   0  0  0  0  0  0  0  0  0  0  0  0
    0.0347   -1.4597    0.7327 C   0  0  0  0  0  0  0  0  0  0  0  0
    1.1123   -2.2680    0.3335 C   0  0  0  0  0  0  0  0  0  0  0  0
    2.3148   -1.6897   -0.0833 C   0  0  0  0  0  0  0  0  0  0  0  0
    2.4612   -0.2946   -0.1095 C   0  0  0  0  0  0  0  0  0  0  0  0
    1.3962    0.5131    0.3180 C   0  0  0  0  0  0  0  0  0  0  0  0
    0.1936   -0.0640    0.7343 C   0  0  0  0  0  0  0  0  0  0  0  0
    3.7061    0.2931   -0.5246 N   0  0  0  0  0  0  0  0  0  0  0  0
    4.9509   -0.1155   -0.1708 C   0  0  0  0  0  0  0  0  0  0  0  0
    5.9399    0.6448   -0.7079 N   0  0  0  0  0  0  0  0  0  0  0  0
    5.2643    1.5574   -1.4301 C   0  0  0  0  0  0  0  0  0  0  0  0
    5.7964    2.5746   -2.2191 C   0  0  0  0  0  0  0  0  0  0  0  0
    4.8974    3.3918   -2.9288 C   0  0  0  0  0  0  0  0  0  0  0  0
    3.5050    3.1667   -2.8425 C   0  0  0  0  0  0  0  0  0  0  0  0
    2.9988    2.1281   -2.0390 C   0  0  0  0  0  0  0  0  0  0  0  0
    3.9182    1.3512   -1.3278 C   0  0  0  0  0  0  0  0  0  0  0  0
   -2.4771   -1.3539    1.1076 N   0  0  0  0  0  0  0  0  0  0  0  0
   -3.3412   -1.2745    2.2928 C   0  0  0  0  0  0  0  0  0  0  0  0
   -4.8160   -1.3047    1.8854 C   0  0  0  0  0  0  0  0  0  0  0  0
   -5.1773   -0.2102    0.8596 C   0  0  0  0  0  0  0  0  0  0  0  0
   -3.9784    0.2909    0.0036 C   0  0  0  0  0  0  0  0  0  0  0  0
   -3.3653    1.3614    0.6870 O   0  0  0  0  0  0  0  0  0  0  0  0
   -4.4821    0.7799   -1.3776 C   0  0  0  0  0  0  0  0  0  0  0  0
   -5.4168    1.8165   -1.2332 O   0  0  0  0  0  0  0  0  0  0  0  0
   -2.9493   -0.8487   -0.1906 C   0  0  0  0  0  0  0  0  0  0  0  0
    1.0212   -3.3471    0.3328 H   0  0  0  0  0  0  0  0  0  0  0  0
    3.1291   -2.3297   -0.3990 H   0  0  0  0  0  0  0  0  0  0  0  0
    1.5051    1.5893    0.3556 H   0  0  0  0  0  0  0  0  0  0  0  0
   -0.6039    0.5808    1.0789 H   0  0  0  0  0  0  0  0  0  0  0  0
    5.1435   -0.9543    0.4857 H   0  0  0  0  0  0  0  0  0  0  0  0
    6.8655    2.7269   -2.2911 H   0  0  0  0  0  0  0  0  0  0  0  0
    5.2755    4.1906   -3.5534 H   0  0  0  0  0  0  0  0  0  0  0  0
    2.8236    3.7914   -3.4050 H   0  0  0  0  0  0  0  0  0  0  0  0
    1.9354    1.9376   -1.9966 H   0  0  0  0  0  0  0  0  0  0  0  0
   -3.1185   -0.3378    2.8476 H   0  0  0  0  0  0  0  0  0  0  0  0
   -3.1495   -2.1303    2.9763 H   0  0  0  0  0  0  0  0  0  0  0  0
   -5.4538   -1.1965    2.7892 H   0  0  0  0  0  0  0  0  0  0  0  0
   -5.0329   -2.3020    1.4421 H   0  0  0  0  0  0  0  0  0  0  0  0
   -5.9780   -0.6199    0.2046 H   0  0  0  0  0  0  0  0  0  0  0  0
   -5.6269    0.6544    1.3964 H   0  0  0  0  0  0  0  0  0  0  0  0
   -2.6228    1.7023    0.1223 H   0  0  0  0  0  0  0  0  0  0  0  0
   -3.6272    1.1190   -2.0076 H   0  0  0  0  0  0  0  0  0  0  0  0
   -4.9694   -0.0590   -1.9201 H   0  0  0  0  0  0  0  0  0  0  0  0
   -4.8989    2.6488   -1.0761 H   0  0  0  0  0  0  0  0  0  0  0  0
   -3.4123   -1.6884   -0.7539 H   0  0  0  0  0  0  0  0  0  0  0  0
   -2.0940   -0.4759   -0.7944 H   0  0  0  0  0  0  0  0  0  0  0  0
  1  2  2  0
  2  3  1  0
  3  4  2  0
  4  5  1  0
  5  6  2  0
  6  7  1  0
  7  8  2  0
  6  9  1  0
  9 10  1  0
 10 11  2  0
 11 12  1  0
 12 13  2  0
 13 14  1  0
 14 15  2  0
 15 16  1  0
 16 17  2  0
  2 18  1  0
 18 19  1  0
 19 20  1  0
 20 21  1  0
 21 22  1  0
 22 23  1  0
 22 24  1  0
 24 25  1  0
 22 26  1  0
  3  8  1  0
 17  9  1  0
 12 17  1  0
 26 18  1  0
  4 27  1  0
  5 28  1  0
  7 29  1  0
  8 30  1  0
 10 31  1  0
 13 32  1  0
 14 33  1  0
 15 34  1  0
 16 35  1  0
 19 36  1  0
 19 37  1  0
 20 38  1  0
 20 39  1  0
 21 40  1  0
 21 41  1  0
 23 42  1  0
 24 43  1  0
 24 44  1  0
 25 45  1  0
 26 46  1  0
 26 47  1  0
M  END
$$$$
