
     RDKit          3D

 43 46  0  0  0  0  0  0  0  0999 V2000
   -2.2769   -4.5029   -2.3585 C   0  0  0  0  0  0  0  0  0  0  0  0
   -1.9281   -4.4271   -0.8620 C   0  0  0  0  0  0  0  0  0  0  0  0
   -0.4187   -4.2919   -0.5610 C   0  0  0  0  0  0  0  0  0  0  0  0
    0.1497   -3.1174   -1.2179 N   0  0  0  0  0  0  0  0  0  0  0  0
    0.1669   -1.8584   -0.7485 C   0  0  0  0  0  0  0  0  0  0  0  0
    0.7705   -1.0953   -1.7275 C   0  0  0  0  0  0  0  0  0  0  0  0
    1.0984   -1.9073   -2.7540 N   0  0  0  0  0  0  0  0  0  0  0  0
    0.7071   -3.1281   -2.4183 N   0  0  0  0  0  0  0  0  0  0  0  0
    1.0376    0.3523   -1.7048 C   0  0  0  0  0  0  0  0  0  0  0  0
    1.6424    0.8776   -2.6786 O   0  0  0  0  0  0  0  0  0  0  0  0
    0.6223    1.1660   -0.5987 N   0  0  0  0  0  0  0  0  0  0  0  0
    0.8746    2.6037   -0.5766 C   0  0  2  0  0  0  0  0  0  0  0  0
    2.3213    2.9462   -0.2308 C   0  0  0  0  0  0  0  0  0  0  0  0
    1.2198    3.1450    0.8061 C   0  0  1  0  0  0  0  0  0  0  0  0
    0.8224    4.5788    1.1095 C   0  0  0  0  0  0  0  0  0  0  0  0
    0.7458    5.5938    0.1294 C   0  0  0  0  0  0  0  0  0  0  0  0
    0.3695    6.8931    0.4837 C   0  0  0  0  0  0  0  0  0  0  0  0
    0.0658    7.1991    1.8113 C   0  0  0  0  0  0  0  0  0  0  0  0
    0.1379    6.2059    2.7898 C   0  0  0  0  0  0  0  0  0  0  0  0
   -0.1568    6.5036    4.0793 F   0  0  0  0  0  0  0  0  0  0  0  0
    0.5136    4.9047    2.4416 C   0  0  0  0  0  0  0  0  0  0  0  0
   -2.6142   -5.4963   -0.0291 C   0  0  0  0  0  0  0  0  0  0  0  0
   -3.4080   -4.5532    0.6521 O   0  0  0  0  0  0  0  0  0  0  0  0
   -2.8223   -3.4925   -0.0662 C   0  0  0  0  0  0  0  0  0  0  0  0
   -1.7158   -5.3338   -2.8359 H   0  0  0  0  0  0  0  0  0  0  0  0
   -3.3642   -4.6772   -2.5113 H   0  0  0  0  0  0  0  0  0  0  0  0
   -2.0097   -3.5504   -2.8621 H   0  0  0  0  0  0  0  0  0  0  0  0
    0.1063   -5.2029   -0.9221 H   0  0  0  0  0  0  0  0  0  0  0  0
   -0.2398   -4.2234    0.5354 H   0  0  0  0  0  0  0  0  0  0  0  0
   -0.2173   -1.5414    0.2114 H   0  0  0  0  0  0  0  0  0  0  0  0
    0.0373    0.7556    0.1622 H   0  0  0  0  0  0  0  0  0  0  0  0
    0.3758    3.2388   -1.3375 H   0  0  0  0  0  0  0  0  0  0  0  0
    2.7097    3.8600   -0.7254 H   0  0  0  0  0  0  0  0  0  0  0  0
    2.9769    2.0714   -0.0318 H   0  0  0  0  0  0  0  0  0  0  0  0
    1.2340    2.3994    1.6314 H   0  0  0  0  0  0  0  0  0  0  0  0
    0.9764    5.3973   -0.9078 H   0  0  0  0  0  0  0  0  0  0  0  0
    0.3141    7.6647   -0.2735 H   0  0  0  0  0  0  0  0  0  0  0  0
   -0.2248    8.2063    2.0807 H   0  0  0  0  0  0  0  0  0  0  0  0
    0.5634    4.1479    3.2150 H   0  0  0  0  0  0  0  0  0  0  0  0
   -1.9393   -6.0273    0.6788 H   0  0  0  0  0  0  0  0  0  0  0  0
   -3.2492   -6.1980   -0.6146 H   0  0  0  0  0  0  0  0  0  0  0  0
   -2.2770   -2.8110    0.6221 H   0  0  0  0  0  0  0  0  0  0  0  0
   -3.5838   -2.9604   -0.6785 H   0  0  0  0  0  0  0  0  0  0  0  0
  1  2  1  0
  2  3  1  0
  3  4  1  0
  4  5  1  0
  5  6  2  0
  6  7  1  0
  7  8  2  0
  6  9  1  0
  9 10  2  0
  9 11  1  0
 11 12  1  0
 12 13  1  0
 13 14  1  0
 14 15  1  0
 15 16  2  0
 16 17  1  0
 17 18  2  0
 18 19  1  0
 19 20  1  0
 19 21  2  0
  2 22  1  0
 22 23  1  0
 23 24  1  0
 24  2  1  0
  8  4  1  0
 14 12  1  0
 15 21  1  0
  1 25  1  0
  1 26  1  0
  1 27  1  0
  3 28  1  0
  3 29  1  0
  5 30  1  0
 11 31  1  0
 12 32  1  6
 13 33  1  0
 13 34  1  0
 14 35  1  1
 16 36  1  0
 17 37  1  0
 18 38  1  0
 21 39  1  0
 22 40  1  0
 22 41  1  0
 24 42  1  0
 24 43  1  0
M  END
$$$$
