
     RDKit          3D

  0  0  0  0  0  0  0  0  0  0999 V3000
M  V30 BEGIN CTAB
M  V30 COUNTS 55 59 0 0 0
M  V30 BEGIN ATOM
M  V30 1 C -4.488924 2.144243 2.566267 0
M  V30 2 N -3.310215 1.264903 2.495325 0
M  V30 3 C -3.076169 0.755770 1.146751 0
M  V30 4 C -1.655796 0.242718 1.155375 0
M  V30 5 C -0.906688 1.229585 2.058038 0 CFG=2
M  V30 6 C -2.017582 1.808085 2.977787 0 CFG=1
M  V30 7 C -1.948478 3.353898 3.081708 0
M  V30 8 C -0.501537 3.788778 3.307264 0
M  V30 9 C 0.362287 3.439684 2.086978 0
M  V30 10 N -0.186073 2.303426 1.329085 0
M  V30 11 C 0.280025 2.135226 -0.021409 0
M  V30 12 O -0.551205 2.194604 -0.968475 0
M  V30 13 C 1.749349 1.870879 -0.295815 0
M  V30 14 C 2.108644 1.984922 -1.785569 0
M  V30 15 C 2.021764 0.567362 -2.338268 0
M  V30 16 N 2.108666 -0.304513 -1.178289 0
M  V30 17 C 2.117100 0.432206 0.075897 0
M  V30 18 C 2.298810 -1.727963 -1.261953 0
M  V30 19 C 3.304004 -2.260475 -2.082866 0
M  V30 20 C 3.498806 -3.642565 -2.161910 0
M  V30 21 C 2.690862 -4.518165 -1.419991 0
M  V30 22 C 1.679339 -3.987036 -0.605458 0
M  V30 23 C 1.477728 -2.605005 -0.530636 0
M  V30 24 F 0.446062 -2.133277 0.214579 0
M  V30 25 C 2.904611 -5.978976 -1.492572 0
M  V30 26 N 3.848677 -6.576441 -2.248518 0
M  V30 27 N 3.705081 -7.871135 -2.014856 0
M  V30 28 N 2.718919 -8.048377 -1.153677 0
M  V30 29 N 2.189160 -6.889443 -0.802952 0
M  V30 30 H -4.415536 2.993768 1.854183 0
M  V30 31 H -5.399419 1.559554 2.315382 0
M  V30 32 H -4.617284 2.525705 3.600729 0
M  V30 33 H -3.788301 -0.063585 0.909269 0
M  V30 34 H -3.169911 1.566851 0.388144 0
M  V30 35 H -1.648544 -0.759542 1.639382 0
M  V30 36 H -1.251373 0.111177 0.133695 0
M  V30 37 H -0.164591 0.668657 2.669571 0
M  V30 38 H -1.855500 1.403039 4.001462 0
M  V30 39 H -2.320394 3.830322 2.148121 0
M  V30 40 H -2.567167 3.706327 3.934809 0
M  V30 41 H -0.463929 4.885150 3.493794 0
M  V30 42 H -0.097836 3.277873 4.210288 0
M  V30 43 H 1.395177 3.203365 2.422544 0
M  V30 44 H 0.409502 4.332122 1.423901 0
M  V30 45 H 2.363738 2.590276 0.288796 0
M  V30 46 H 1.462545 2.693010 -2.348826 0
M  V30 47 H 3.158901 2.340046 -1.873539 0
M  V30 48 H 1.047818 0.405759 -2.849294 0
M  V30 49 H 2.854149 0.382106 -3.048433 0
M  V30 50 H 3.140208 0.399135 0.510614 0
M  V30 51 H 1.409314 -0.005016 0.807994 0
M  V30 52 H 3.958313 -1.607670 -2.645320 0
M  V30 53 H 4.285377 -4.024936 -2.800114 0
M  V30 54 H 1.031693 -4.641035 -0.034785 0
M  V30 55 H 2.397695 -8.977515 -0.802954 0
M  V30 END ATOM
M  V30 BEGIN BOND
M  V30 1 1 1 2
M  V30 2 1 2 3
M  V30 3 1 3 4
M  V30 4 1 4 5
M  V30 5 1 5 6
M  V30 6 1 6 7
M  V30 7 1 7 8
M  V30 8 1 8 9
M  V30 9 1 9 10
M  V30 10 1 10 11
M  V30 11 2 11 12
M  V30 12 1 11 13
M  V30 13 1 13 14
M  V30 14 1 14 15
M  V30 15 1 15 16
M  V30 16 1 16 17
M  V30 17 1 16 18
M  V30 18 2 18 19
M  V30 19 1 19 20
M  V30 20 2 20 21
M  V30 21 1 21 22
M  V30 22 2 22 23
M  V30 23 1 23 24
M  V30 24 1 21 25
M  V30 25 1 25 26
M  V30 26 2 26 27
M  V30 27 1 27 28
M  V30 28 1 28 29
M  V30 29 1 6 2
M  V30 30 1 10 5
M  V30 31 1 17 13
M  V30 32 1 23 18
M  V30 33 2 25 29
M  V30 34 1 1 30
M  V30 35 1 1 31
M  V30 36 1 1 32
M  V30 37 1 3 33
M  V30 38 1 3 34
M  V30 39 1 4 35
M  V30 40 1 4 36
M  V30 41 1 5 37 CFG=1
M  V30 42 1 6 38 CFG=1
M  V30 43 1 7 39
M  V30 44 1 7 40
M  V30 45 1 8 41
M  V30 46 1 8 42
M  V30 47 1 9 43
M  V30 48 1 9 44
M  V30 49 1 13 45
M  V30 50 1 14 46
M  V30 51 1 14 47
M  V30 52 1 15 48
M  V30 53 1 15 49
M  V30 54 1 17 50
M  V30 55 1 17 51
M  V30 56 1 19 52
M  V30 57 1 20 53
M  V30 58 1 22 54
M  V30 59 1 28 55
M  V30 END BOND
M  V30 BEGIN COLLECTION
M  V30 MDLV30/STERAC1 ATOMS=(2 5 6)
M  V30 END COLLECTION
M  V30 END CTAB
M  END
>  <_CXSMILES_Data>  (1) 
|&1:4,5,r|

$$$$
