
     RDKit          3D

 40 43  0  0  0  0  0  0  0  0999 V2000
   -3.5008    1.1899    0.4323 O   0  0  0  0  0  0  0  0  0  0  0  0
   -2.7699    0.9277   -0.8543 S   0  0  0  0  0  0  0  0  0  0  0  0
   -2.3412   -0.5086   -0.9661 O   0  0  0  0  0  0  0  0  0  0  0  0
   -3.7133    1.4358   -2.2496 C   0  0  0  0  0  0  0  0  0  0  0  0
   -3.1474    2.8120   -2.6131 C   0  0  0  0  0  0  0  0  0  0  0  0
   -1.6660    2.9026   -2.1846 C   0  0  0  0  0  0  0  0  0  0  0  0
   -1.4453    2.0032   -1.0541 N   0  0  0  0  0  0  0  0  0  0  0  0
   -0.2056    1.9100   -0.3161 C   0  0  0  0  0  0  0  0  0  0  0  0
    0.9489    2.5818   -0.7630 C   0  0  0  0  0  0  0  0  0  0  0  0
    2.1488    2.4823   -0.0551 C   0  0  0  0  0  0  0  0  0  0  0  0
    2.2170    1.7172    1.1092 C   0  0  0  0  0  0  0  0  0  0  0  0
    1.0791    1.0470    1.5789 C   0  0  0  0  0  0  0  0  0  0  0  0
   -0.1266    1.1491    0.8666 C   0  0  0  0  0  0  0  0  0  0  0  0
    1.1422    0.2184    2.8345 C   0  0  0  0  0  0  0  0  0  0  0  0
    0.8388   -1.1799    2.5369 N   0  0  0  0  0  0  0  0  0  0  0  0
    1.7330   -2.0166    1.7877 C   0  0  0  0  0  0  0  0  0  0  0  0
    2.9631   -1.5618    1.3975 N   0  0  0  0  0  0  0  0  0  0  0  0
    3.8247   -2.3501    0.6779 C   0  0  0  0  0  0  0  0  0  0  0  0
    3.4717   -3.6239    0.3283 N   0  0  0  0  0  0  0  0  0  0  0  0
    2.2556   -4.0783    0.7136 C   0  0  0  0  0  0  0  0  0  0  0  0
    1.7343   -5.2885    0.4533 N   0  0  0  0  0  0  0  0  0  0  0  0
    0.5119   -5.2103    1.0463 C   0  0  0  0  0  0  0  0  0  0  0  0
    0.2718   -4.0174    1.6471 N   0  0  0  0  0  0  0  0  0  0  0  0
    1.3910   -3.3171    1.4238 C   0  0  0  0  0  0  0  0  0  0  0  0
   -4.7949    1.4923   -2.0032 H   0  0  0  0  0  0  0  0  0  0  0  0
   -3.5484    0.7237   -3.0867 H   0  0  0  0  0  0  0  0  0  0  0  0
   -3.2539    3.0046   -3.7022 H   0  0  0  0  0  0  0  0  0  0  0  0
   -3.7249    3.5890   -2.0649 H   0  0  0  0  0  0  0  0  0  0  0  0
   -1.4242    3.9488   -1.8954 H   0  0  0  0  0  0  0  0  0  0  0  0
   -1.0155    2.5940   -3.0316 H   0  0  0  0  0  0  0  0  0  0  0  0
    0.9334    3.1776   -1.6651 H   0  0  0  0  0  0  0  0  0  0  0  0
    3.0303    2.9987   -0.4128 H   0  0  0  0  0  0  0  0  0  0  0  0
    3.1569    1.6481    1.6426 H   0  0  0  0  0  0  0  0  0  0  0  0
   -0.9977    0.6334    1.2463 H   0  0  0  0  0  0  0  0  0  0  0  0
    0.3948    0.6113    3.5573 H   0  0  0  0  0  0  0  0  0  0  0  0
    2.1387    0.2869    3.3228 H   0  0  0  0  0  0  0  0  0  0  0  0
   -0.0674   -1.5679    2.8815 H   0  0  0  0  0  0  0  0  0  0  0  0
    4.7896   -1.9602    0.3843 H   0  0  0  0  0  0  0  0  0  0  0  0
   -0.2025   -6.0225    1.0355 H   0  0  0  0  0  0  0  0  0  0  0  0
   -0.5916   -3.7254    2.1557 H   0  0  0  0  0  0  0  0  0  0  0  0
  1  2  2  0
  2  3  2  0
  2  4  1  0
  4  5  1  0
  5  6  1  0
  6  7  1  0
  7  8  1  0
  8  9  2  0
  9 10  1  0
 10 11  2  0
 11 12  1  0
 12 13  2  0
 12 14  1  0
 14 15  1  0
 15 16  1  0
 16 17  2  0
 17 18  1  0
 18 19  2  0
 19 20  1  0
 20 21  1  0
 21 22  2  0
 22 23  1  0
 23 24  1  0
  7  2  1  0
  8 13  1  0
 16 24  1  0
 24 20  2  0
  4 25  1  0
  4 26  1  0
  5 27  1  0
  5 28  1  0
  6 29  1  0
  6 30  1  0
  9 31  1  0
 10 32  1  0
 11 33  1  0
 13 34  1  0
 14 35  1  0
 14 36  1  0
 15 37  1  0
 18 38  1  0
 22 39  1  0
 23 40  1  0
M  END
$$$$
