
     RDKit          3D

 40 42  0  0  0  0  0  0  0  0999 V2000
    0.7002   -0.0685   -0.6344 O   0  0  0  0  0  0  0  0  0  0  0  0
   -0.5092   -0.4282   -0.6332 C   0  0  0  0  0  0  0  0  0  0  0  0
   -0.8551   -1.7613   -1.0461 N   0  0  0  0  0  0  0  0  0  0  0  0
   -0.0180   -2.5804   -1.8811 C   0  0  0  0  0  0  0  0  0  0  0  0
   -0.0569   -3.9748   -1.7370 C   0  0  0  0  0  0  0  0  0  0  0  0
    0.7331   -4.7913   -2.5485 C   0  0  0  0  0  0  0  0  0  0  0  0
    1.5589   -4.2244   -3.5211 C   0  0  0  0  0  0  0  0  0  0  0  0
    1.5967   -2.8371   -3.7000 C   0  0  0  0  0  0  0  0  0  0  0  0
    0.7992   -2.0153   -2.8783 C   0  0  0  0  0  0  0  0  0  0  0  0
    2.4340   -2.3198   -4.7008 O   0  0  0  0  0  0  0  0  0  0  0  0
    2.5634   -0.9369   -5.0183 C   0  0  0  0  0  0  0  0  0  0  0  0
    3.5450   -0.7840   -5.9782 F   0  0  0  0  0  0  0  0  0  0  0  0
    1.3676   -0.4534   -5.5178 F   0  0  0  0  0  0  0  0  0  0  0  0
   -1.5510    0.5145   -0.1568 C   0  0  0  0  0  0  0  0  0  0  0  0
   -2.9042    0.3211   -0.4880 C   0  0  0  0  0  0  0  0  0  0  0  0
   -3.8745    1.2276   -0.0556 C   0  0  0  0  0  0  0  0  0  0  0  0
   -3.5103    2.3328    0.7150 C   0  0  0  0  0  0  0  0  0  0  0  0
   -2.1709    2.5376    1.0715 C   0  0  0  0  0  0  0  0  0  0  0  0
   -1.1919    1.6380    0.6118 C   0  0  0  0  0  0  0  0  0  0  0  0
   -1.8176    3.6970    1.8448 N   0  0  0  0  0  0  0  0  0  0  0  0
   -0.7853    3.7173    2.8411 C   0  0  0  0  0  0  0  0  0  0  0  0
   -0.3773    4.9072    3.3596 N   0  0  0  0  0  0  0  0  0  0  0  0
    0.5774    4.9614    4.3246 C   0  0  0  0  0  0  0  0  0  0  0  0
    1.1484    3.7839    4.8047 C   0  0  0  0  0  0  0  0  0  0  0  0
    0.7119    2.5710    4.2746 C   0  0  0  0  0  0  0  0  0  0  0  0
   -0.2454    2.5587    3.3111 N   0  0  0  0  0  0  0  0  0  0  0  0
   -1.7032   -2.2016   -0.6232 H   0  0  0  0  0  0  0  0  0  0  0  0
   -0.6933   -4.4279   -0.9872 H   0  0  0  0  0  0  0  0  0  0  0  0
    0.7046   -5.8662   -2.4239 H   0  0  0  0  0  0  0  0  0  0  0  0
    2.1674   -4.8665   -4.1454 H   0  0  0  0  0  0  0  0  0  0  0  0
    0.7937   -0.9451   -3.0247 H   0  0  0  0  0  0  0  0  0  0  0  0
    2.8575   -0.3614   -4.1152 H   0  0  0  0  0  0  0  0  0  0  0  0
   -3.2143   -0.5129   -1.1037 H   0  0  0  0  0  0  0  0  0  0  0  0
   -4.9121    1.0764   -0.3245 H   0  0  0  0  0  0  0  0  0  0  0  0
   -4.2734    3.0280    1.0418 H   0  0  0  0  0  0  0  0  0  0  0  0
   -0.1497    1.8213    0.8383 H   0  0  0  0  0  0  0  0  0  0  0  0
   -2.4010    4.5577    1.7369 H   0  0  0  0  0  0  0  0  0  0  0  0
    0.8905    5.9184    4.7200 H   0  0  0  0  0  0  0  0  0  0  0  0
    1.9094    3.8106    5.5737 H   0  0  0  0  0  0  0  0  0  0  0  0
    1.1309    1.6392    4.6301 H   0  0  0  0  0  0  0  0  0  0  0  0
  1  2  2  0
  2  3  1  0
  3  4  1  0
  4  5  2  0
  5  6  1  0
  6  7  2  0
  7  8  1  0
  8  9  2  0
  8 10  1  0
 10 11  1  0
 11 12  1  0
 11 13  1  0
  2 14  1  0
 14 15  2  0
 15 16  1  0
 16 17  2  0
 17 18  1  0
 18 19  2  0
 18 20  1  0
 20 21  1  0
 21 22  2  0
 22 23  1  0
 23 24  2  0
 24 25  1  0
 25 26  2  0
  4  9  1  0
 14 19  1  0
 21 26  1  0
  3 27  1  0
  5 28  1  0
  6 29  1  0
  7 30  1  0
  9 31  1  0
 11 32  1  0
 15 33  1  0
 16 34  1  0
 17 35  1  0
 19 36  1  0
 20 37  1  0
 23 38  1  0
 24 39  1  0
 25 40  1  0
M  END
$$$$
