
     RDKit          3D

 47 48  0  0  0  0  0  0  0  0999 V2000
    0.8909    2.7861    2.1957 C   0  0  0  0  0  0  0  0  0  0  0  0
    0.5726    1.6435    1.2777 C   0  0  0  0  0  0  0  0  0  0  0  0
   -0.1188    1.7868    0.0899 C   0  0  0  0  0  0  0  0  0  0  0  0
   -0.1483    0.5184   -0.4486 C   0  0  0  0  0  0  0  0  0  0  0  0
    0.4825   -0.3356    0.3764 N   0  0  0  0  0  0  0  0  0  0  0  0
    0.9463    0.3412    1.4207 N   0  0  0  0  0  0  0  0  0  0  0  0
    1.6284   -0.3303    2.5570 C   0  0  0  0  0  0  0  0  0  0  0  0
    2.1124   -1.7342    2.1194 C   0  0  0  0  0  0  0  0  0  0  0  0
    2.8676    0.4648    3.0252 C   0  0  0  0  0  0  0  0  0  0  0  0
    0.6369   -0.5028    3.7212 C   0  0  0  0  0  0  0  0  0  0  0  0
   -0.8360    0.1235   -1.6933 C   0  0  0  0  0  0  0  0  0  0  0  0
   -1.6855    0.9112   -2.1941 O   0  0  0  0  0  0  0  0  0  0  0  0
   -0.5945   -1.1490   -2.3249 N   0  0  0  0  0  0  0  0  0  0  0  0
    0.7526   -1.7265   -2.3827 C   0  0  0  0  0  0  0  0  0  0  0  0
   -1.6756   -1.8018   -3.0143 C   0  0  0  0  0  0  0  0  0  0  0  0
   -2.6988   -2.3835   -2.2541 C   0  0  0  0  0  0  0  0  0  0  0  0
   -3.7468   -3.0528   -2.8775 C   0  0  0  0  0  0  0  0  0  0  0  0
   -3.7752   -3.1714   -4.2674 C   0  0  0  0  0  0  0  0  0  0  0  0
   -2.7629   -2.6010   -5.0573 C   0  0  0  0  0  0  0  0  0  0  0  0
   -2.8329   -2.7673   -6.5550 C   0  0  0  0  0  0  0  0  0  0  0  0
   -1.7248   -1.8588   -4.4306 C   0  0  0  0  0  0  0  0  0  0  0  0
   -0.6570   -1.1796   -5.2579 C   0  0  0  0  0  0  0  0  0  0  0  0
    0.3605    3.7053    1.8577 H   0  0  0  0  0  0  0  0  0  0  0  0
    1.9779    3.0043    2.1646 H   0  0  0  0  0  0  0  0  0  0  0  0
    0.5655    2.5615    3.2310 H   0  0  0  0  0  0  0  0  0  0  0  0
   -0.5459    2.6923   -0.3222 H   0  0  0  0  0  0  0  0  0  0  0  0
    2.6510   -2.2489    2.9446 H   0  0  0  0  0  0  0  0  0  0  0  0
    2.8014   -1.6513    1.2516 H   0  0  0  0  0  0  0  0  0  0  0  0
    1.2542   -2.3778    1.8274 H   0  0  0  0  0  0  0  0  0  0  0  0
    3.5267   -0.1617    3.6644 H   0  0  0  0  0  0  0  0  0  0  0  0
    3.4567    0.8119    2.1493 H   0  0  0  0  0  0  0  0  0  0  0  0
    2.5863    1.3367    3.6464 H   0  0  0  0  0  0  0  0  0  0  0  0
   -0.2736   -1.0378    3.3728 H   0  0  0  0  0  0  0  0  0  0  0  0
    0.3215    0.4768    4.1331 H   0  0  0  0  0  0  0  0  0  0  0  0
    1.0958   -1.0922    4.5468 H   0  0  0  0  0  0  0  0  0  0  0  0
    1.1117   -1.9966   -1.3687 H   0  0  0  0  0  0  0  0  0  0  0  0
    0.7586   -2.6565   -2.9948 H   0  0  0  0  0  0  0  0  0  0  0  0
    1.4547   -0.9979   -2.8429 H   0  0  0  0  0  0  0  0  0  0  0  0
   -2.6644   -2.3433   -1.1742 H   0  0  0  0  0  0  0  0  0  0  0  0
   -4.5204   -3.5184   -2.2846 H   0  0  0  0  0  0  0  0  0  0  0  0
   -4.5862   -3.7240   -4.7277 H   0  0  0  0  0  0  0  0  0  0  0  0
   -3.5150   -3.5997   -6.8396 H   0  0  0  0  0  0  0  0  0  0  0  0
   -1.8318   -3.0065   -6.9641 H   0  0  0  0  0  0  0  0  0  0  0  0
   -3.2094   -1.8295   -7.0181 H   0  0  0  0  0  0  0  0  0  0  0  0
    0.1468   -1.9089   -5.4976 H   0  0  0  0  0  0  0  0  0  0  0  0
   -1.0767   -0.7694   -6.1987 H   0  0  0  0  0  0  0  0  0  0  0  0
   -0.2154   -0.3163   -4.7177 H   0  0  0  0  0  0  0  0  0  0  0  0
  1  2  1  0
  2  3  2  0
  3  4  1  0
  4  5  2  0
  5  6  1  0
  6  7  1  0
  7  8  1  0
  7  9  1  0
  7 10  1  0
  4 11  1  0
 11 12  2  0
 11 13  1  0
 13 14  1  0
 13 15  1  0
 15 16  2  0
 16 17  1  0
 17 18  2  0
 18 19  1  0
 19 20  1  0
 19 21  2  0
 21 22  1  0
  6  2  1  0
 15 21  1  0
  1 23  1  0
  1 24  1  0
  1 25  1  0
  3 26  1  0
  8 27  1  0
  8 28  1  0
  8 29  1  0
  9 30  1  0
  9 31  1  0
  9 32  1  0
 10 33  1  0
 10 34  1  0
 10 35  1  0
 14 36  1  0
 14 37  1  0
 14 38  1  0
 16 39  1  0
 17 40  1  0
 18 41  1  0
 20 42  1  0
 20 43  1  0
 20 44  1  0
 22 45  1  0
 22 46  1  0
 22 47  1  0
M  END
$$$$
