
     RDKit          3D

 42 45  0  0  0  0  0  0  0  0999 V2000
   -2.7797   -2.6018   -0.3362 C   0  0  0  0  0  0  0  0  0  0  0  0
   -1.7948   -1.4833   -0.4011 C   0  0  0  0  0  0  0  0  0  0  0  0
   -1.6372   -0.6498    0.6745 N   0  0  0  0  0  0  0  0  0  0  0  0
   -0.7809    0.4174    0.6549 C   0  0  0  0  0  0  0  0  0  0  0  0
   -0.0564    0.6248   -0.5301 C   0  0  0  0  0  0  0  0  0  0  0  0
    0.8669    1.5569   -0.9778 C   0  0  0  0  0  0  0  0  0  0  0  0
    1.2019    1.2556   -2.2560 N   0  0  0  0  0  0  0  0  0  0  0  0
    0.5374    0.1658   -2.6243 N   0  0  0  0  0  0  0  0  0  0  0  0
    0.6415   -0.4295   -3.9313 C   0  0  0  0  0  0  0  0  0  0  0  0
    0.4884   -1.8168   -4.1165 C   0  0  0  0  0  0  0  0  0  0  0  0
    0.6031   -2.3763   -5.3931 C   0  0  0  0  0  0  0  0  0  0  0  0
    0.8792   -1.5619   -6.4937 C   0  0  0  0  0  0  0  0  0  0  0  0
    1.0485   -0.1867   -6.3191 C   0  0  0  0  0  0  0  0  0  0  0  0
    0.9358    0.3773   -5.0446 C   0  0  0  0  0  0  0  0  0  0  0  0
   -0.2270   -0.2214   -1.5862 C   0  0  0  0  0  0  0  0  0  0  0  0
   -1.0972   -1.2584   -1.5519 N   0  0  0  0  0  0  0  0  0  0  0  0
   -0.6713    1.2553    1.8250 N   0  0  0  0  0  0  0  0  0  0  0  0
   -0.0225    2.5545    1.8816 C   0  0  0  0  0  0  0  0  0  0  0  0
   -0.4218    3.1585    3.2211 C   0  0  0  0  0  0  0  0  0  0  0  0
   -0.8914    1.9824    4.0866 C   0  0  2  0  0  0  0  0  0  0  0  0
    0.2314    1.4741    5.0132 C   0  0  0  0  0  0  0  0  0  0  0  0
    0.5901    2.4583    5.9458 O   0  0  0  0  0  0  0  0  0  0  0  0
   -1.3140    0.9054    3.0826 C   0  0  0  0  0  0  0  0  0  0  0  0
   -3.7717   -2.2402   -0.6777 H   0  0  0  0  0  0  0  0  0  0  0  0
   -2.4517   -3.4388   -0.9882 H   0  0  0  0  0  0  0  0  0  0  0  0
   -2.8661   -2.9754    0.7060 H   0  0  0  0  0  0  0  0  0  0  0  0
    1.2755    2.4002   -0.4451 H   0  0  0  0  0  0  0  0  0  0  0  0
    0.3091   -2.4738   -3.2772 H   0  0  0  0  0  0  0  0  0  0  0  0
    0.4857   -3.4439   -5.5276 H   0  0  0  0  0  0  0  0  0  0  0  0
    0.9685   -1.9974   -7.4805 H   0  0  0  0  0  0  0  0  0  0  0  0
    1.2675    0.4433   -7.1716 H   0  0  0  0  0  0  0  0  0  0  0  0
    1.0660    1.4456   -4.9273 H   0  0  0  0  0  0  0  0  0  0  0  0
    1.0798    2.4210    1.8453 H   0  0  0  0  0  0  0  0  0  0  0  0
   -0.3746    3.2049    1.0519 H   0  0  0  0  0  0  0  0  0  0  0  0
   -1.2738    3.8574    3.0671 H   0  0  0  0  0  0  0  0  0  0  0  0
    0.4192    3.7280    3.6735 H   0  0  0  0  0  0  0  0  0  0  0  0
   -1.7633    2.2847    4.7089 H   0  0  0  0  0  0  0  0  0  0  0  0
   -0.1013    0.5546    5.5474 H   0  0  0  0  0  0  0  0  0  0  0  0
    1.1280    1.2080    4.4125 H   0  0  0  0  0  0  0  0  0  0  0  0
   -0.1399    2.4927    6.6178 H   0  0  0  0  0  0  0  0  0  0  0  0
   -1.0063   -0.1145    3.4027 H   0  0  0  0  0  0  0  0  0  0  0  0
   -2.4176    0.9233    2.9475 H   0  0  0  0  0  0  0  0  0  0  0  0
  1  2  1  0
  2  3  2  0
  3  4  1  0
  4  5  2  0
  5  6  1  0
  6  7  2  0
  7  8  1  0
  8  9  1  0
  9 10  2  0
 10 11  1  0
 11 12  2  0
 12 13  1  0
 13 14  2  0
  8 15  1  0
 15 16  2  0
  4 17  1  0
 17 18  1  0
 18 19  1  0
 19 20  1  0
 20 21  1  0
 21 22  1  0
 20 23  1  0
  2 16  1  0
  5 15  1  0
  9 14  1  0
 23 17  1  0
  1 24  1  0
  1 25  1  0
  1 26  1  0
  6 27  1  0
 10 28  1  0
 11 29  1  0
 12 30  1  0
 13 31  1  0
 14 32  1  0
 18 33  1  0
 18 34  1  0
 19 35  1  0
 19 36  1  0
 20 37  1  1
 21 38  1  0
 21 39  1  0
 22 40  1  0
 23 41  1  0
 23 42  1  0
M  END
$$$$
