
     RDKit          3D

 42 44  0  0  0  0  0  0  0  0999 V2000
   -2.3461   -5.7709    3.9606 C   0  0  0  0  0  0  0  0  0  0  0  0
   -1.9727   -5.1552    2.6555 C   0  0  0  0  0  0  0  0  0  0  0  0
   -2.4566   -5.5772    1.4689 N   0  0  0  0  0  0  0  0  0  0  0  0
   -1.8855   -4.7395    0.5824 C   0  0  0  0  0  0  0  0  0  0  0  0
   -1.0851   -3.8420    1.2640 C   0  0  0  0  0  0  0  0  0  0  0  0
   -1.1651   -4.1261    2.5411 O   0  0  0  0  0  0  0  0  0  0  0  0
   -0.2681   -2.7413    0.7048 C   0  0  0  0  0  0  0  0  0  0  0  0
   -0.2248   -2.4882   -0.6771 C   0  0  0  0  0  0  0  0  0  0  0  0
    0.5526   -1.4425   -1.1834 C   0  0  0  0  0  0  0  0  0  0  0  0
    1.3033   -0.6262   -0.3174 C   0  0  0  0  0  0  0  0  0  0  0  0
    1.2578   -0.8809    1.0610 C   0  0  0  0  0  0  0  0  0  0  0  0
    0.4819   -1.9268    1.5676 C   0  0  0  0  0  0  0  0  0  0  0  0
    2.1030    0.4689   -0.8013 N   0  0  0  0  0  0  0  0  0  0  0  0
    2.2648    0.8932   -2.4778 S   0  0  0  0  0  0  0  0  0  0  0  0
    2.7957   -0.2995   -3.2228 O   0  0  0  0  0  0  0  0  0  0  0  0
    3.2484    2.0229   -2.5964 O   0  0  0  0  0  0  0  0  0  0  0  0
    0.7097    1.4193   -3.1476 C   0  0  0  0  0  0  0  0  0  0  0  0
   -0.3209    1.7736   -2.2612 C   0  0  0  0  0  0  0  0  0  0  0  0
   -1.5788    2.1626   -2.7395 C   0  0  0  0  0  0  0  0  0  0  0  0
   -2.6611    2.5594   -1.7792 C   0  0  0  0  0  0  0  0  0  0  0  0
   -1.7969    2.2396   -4.1195 C   0  0  0  0  0  0  0  0  0  0  0  0
   -0.7764    1.9113   -5.0125 C   0  0  0  0  0  0  0  0  0  0  0  0
    0.4867    1.5121   -4.5437 C   0  0  0  0  0  0  0  0  0  0  0  0
    1.5556    1.1648   -5.5457 C   0  0  0  0  0  0  0  0  0  0  0  0
   -1.5692   -5.5458    4.7210 H   0  0  0  0  0  0  0  0  0  0  0  0
   -2.4328   -6.8719    3.8480 H   0  0  0  0  0  0  0  0  0  0  0  0
   -3.3191   -5.3584    4.2987 H   0  0  0  0  0  0  0  0  0  0  0  0
   -2.0527   -4.7892   -0.4844 H   0  0  0  0  0  0  0  0  0  0  0  0
   -0.7898   -3.0928   -1.3728 H   0  0  0  0  0  0  0  0  0  0  0  0
    0.5535   -1.2792   -2.2511 H   0  0  0  0  0  0  0  0  0  0  0  0
    1.8249   -0.2647    1.7476 H   0  0  0  0  0  0  0  0  0  0  0  0
    0.4679   -2.0970    2.6371 H   0  0  0  0  0  0  0  0  0  0  0  0
    2.6260    1.0566   -0.1140 H   0  0  0  0  0  0  0  0  0  0  0  0
   -0.1501    1.7449   -1.1929 H   0  0  0  0  0  0  0  0  0  0  0  0
   -2.5618    3.6379   -1.5365 H   0  0  0  0  0  0  0  0  0  0  0  0
   -2.5869    1.9681   -0.8416 H   0  0  0  0  0  0  0  0  0  0  0  0
   -3.6646    2.3780   -2.2198 H   0  0  0  0  0  0  0  0  0  0  0  0
   -2.7578    2.5566   -4.5060 H   0  0  0  0  0  0  0  0  0  0  0  0
   -0.9732    1.9757   -6.0757 H   0  0  0  0  0  0  0  0  0  0  0  0
    2.5200    1.6362   -5.2647 H   0  0  0  0  0  0  0  0  0  0  0  0
    1.6770    0.0629   -5.5946 H   0  0  0  0  0  0  0  0  0  0  0  0
    1.2936    1.5309   -6.5613 H   0  0  0  0  0  0  0  0  0  0  0  0
  1  2  1  0
  2  3  2  0
  3  4  1  0
  4  5  2  0
  5  6  1  0
  5  7  1  0
  7  8  2  0
  8  9  1  0
  9 10  2  0
 10 11  1  0
 11 12  2  0
 10 13  1  0
 13 14  1  0
 14 15  2  0
 14 16  2  0
 14 17  1  0
 17 18  2  0
 18 19  1  0
 19 20  1  0
 19 21  2  0
 21 22  1  0
 22 23  2  0
 23 24  1  0
  6  2  1  0
  7 12  1  0
 17 23  1  0
  1 25  1  0
  1 26  1  0
  1 27  1  0
  4 28  1  0
  8 29  1  0
  9 30  1  0
 11 31  1  0
 12 32  1  0
 13 33  1  0
 18 34  1  0
 20 35  1  0
 20 36  1  0
 20 37  1  0
 21 38  1  0
 22 39  1  0
 24 40  1  0
 24 41  1  0
 24 42  1  0
M  END
$$$$
