
     RDKit          3D

 44 47  0  0  0  0  0  0  0  0999 V2000
   -3.2643    1.3459   -1.9591 O   0  0  0  0  0  0  0  0  0  0  0  0
   -2.4036    0.6100   -1.4029 C   0  0  0  0  0  0  0  0  0  0  0  0
   -2.7360   -0.0759   -0.1850 N   0  0  0  0  0  0  0  0  0  0  0  0
   -3.8914    0.3086    0.6368 C   0  0  0  0  0  0  0  0  0  0  0  0
   -3.6173    1.6482    1.3379 C   0  0  0  0  0  0  0  0  0  0  0  0
   -2.5059    1.5061    2.4055 C   0  0  0  0  0  0  0  0  0  0  0  0
   -2.1814    0.1567    2.7036 O   0  0  0  0  0  0  0  0  0  0  0  0
   -3.3573   -0.5808    2.9732 C   0  0  0  0  0  0  0  0  0  0  0  0
   -4.1981   -0.7727    1.6950 C   0  0  0  0  0  0  0  0  0  0  0  0
   -1.0660    0.4579   -2.0214 C   0  0  0  0  0  0  0  0  0  0  0  0
   -0.8859    0.6981   -3.3921 C   0  0  0  0  0  0  0  0  0  0  0  0
    0.3423    0.5656   -3.9564 N   0  0  0  0  0  0  0  0  0  0  0  0
    1.4325    0.2074   -3.2299 C   0  0  0  0  0  0  0  0  0  0  0  0
    1.3186   -0.0311   -1.8511 C   0  0  0  0  0  0  0  0  0  0  0  0
    0.0542    0.1004   -1.2531 C   0  0  0  0  0  0  0  0  0  0  0  0
    2.5072   -0.4053   -1.0433 C   0  0  0  0  0  0  0  0  0  0  0  0
    3.4738   -1.3057   -1.5603 C   0  0  0  0  0  0  0  0  0  0  0  0
    4.5979   -1.6635   -0.7984 C   0  0  0  0  0  0  0  0  0  0  0  0
    4.7369   -1.1126    0.4718 C   0  0  0  0  0  0  0  0  0  0  0  0
    5.7637   -1.3399    1.3612 O   0  0  0  0  0  0  0  0  0  0  0  0
    5.5517   -0.5916    2.5584 C   0  0  0  0  0  0  0  0  0  0  0  0
    4.2255    0.1798    2.3466 C   0  0  0  0  0  0  0  0  0  0  0  0
    3.8170   -0.2461    0.9827 C   0  0  0  0  0  0  0  0  0  0  0  0
    2.6898    0.1305    0.2529 C   0  0  0  0  0  0  0  0  0  0  0  0
   -2.1548   -0.8956    0.1023 H   0  0  0  0  0  0  0  0  0  0  0  0
   -4.7825    0.4119   -0.0213 H   0  0  0  0  0  0  0  0  0  0  0  0
   -3.3395    2.4280    0.5962 H   0  0  0  0  0  0  0  0  0  0  0  0
   -4.5538    1.9872    1.8332 H   0  0  0  0  0  0  0  0  0  0  0  0
   -1.5857    1.9977    2.0240 H   0  0  0  0  0  0  0  0  0  0  0  0
   -2.7948    2.0431    3.3363 H   0  0  0  0  0  0  0  0  0  0  0  0
   -3.0684   -1.5767    3.3706 H   0  0  0  0  0  0  0  0  0  0  0  0
   -3.9626   -0.0837    3.7666 H   0  0  0  0  0  0  0  0  0  0  0  0
   -4.0211   -1.7842    1.2679 H   0  0  0  0  0  0  0  0  0  0  0  0
   -5.2748   -0.7221    1.9687 H   0  0  0  0  0  0  0  0  0  0  0  0
   -1.7224    0.9818   -4.0177 H   0  0  0  0  0  0  0  0  0  0  0  0
    2.3909    0.1330   -3.7267 H   0  0  0  0  0  0  0  0  0  0  0  0
   -0.0512   -0.0702   -0.1897 H   0  0  0  0  0  0  0  0  0  0  0  0
    3.3493   -1.7435   -2.5426 H   0  0  0  0  0  0  0  0  0  0  0  0
    5.3358   -2.3529   -1.1872 H   0  0  0  0  0  0  0  0  0  0  0  0
    5.4714   -1.2837    3.4237 H   0  0  0  0  0  0  0  0  0  0  0  0
    6.3968    0.1122    2.7153 H   0  0  0  0  0  0  0  0  0  0  0  0
    4.3910    1.2782    2.3761 H   0  0  0  0  0  0  0  0  0  0  0  0
    3.4605   -0.1240    3.0929 H   0  0  0  0  0  0  0  0  0  0  0  0
    1.9856    0.8347    0.6777 H   0  0  0  0  0  0  0  0  0  0  0  0
  1  2  2  0
  2  3  1  0
  3  4  1  0
  4  5  1  0
  5  6  1  0
  6  7  1  0
  7  8  1  0
  8  9  1  0
  2 10  1  0
 10 11  2  0
 11 12  1  0
 12 13  2  0
 13 14  1  0
 14 15  2  0
 14 16  1  0
 16 17  2  0
 17 18  1  0
 18 19  2  0
 19 20  1  0
 20 21  1  0
 21 22  1  0
 22 23  1  0
 23 24  2  0
  9  4  1  0
 10 15  1  0
 24 16  1  0
 23 19  1  0
  3 25  1  0
  4 26  1  0
  5 27  1  0
  5 28  1  0
  6 29  1  0
  6 30  1  0
  8 31  1  0
  8 32  1  0
  9 33  1  0
  9 34  1  0
 11 35  1  0
 13 36  1  0
 15 37  1  0
 17 38  1  0
 18 39  1  0
 21 40  1  0
 21 41  1  0
 22 42  1  0
 22 43  1  0
 24 44  1  0
M  END
$$$$
