
     RDKit          3D

 38 40  0  0  0  0  0  0  0  0999 V2000
   -1.6528   -0.4678   -3.5593 O   0  0  0  0  0  0  0  0  0  0  0  0
   -0.9204   -1.0833   -2.7369 C   0  0  0  0  0  0  0  0  0  0  0  0
   -1.2882   -1.1196   -1.3475 N   0  0  0  0  0  0  0  0  0  0  0  0
   -2.4915   -0.4625   -0.8361 C   0  0  0  0  0  0  0  0  0  0  0  0
   -2.3208    1.0606   -0.8011 C   0  0  0  0  0  0  0  0  0  0  0  0
   -1.1613    1.4586    0.0629 C   0  0  0  0  0  0  0  0  0  0  0  0
    0.1175    1.6846   -0.4399 C   0  0  0  0  0  0  0  0  0  0  0  0
    1.1195    2.0353    0.8616 S   0  0  0  0  0  0  0  0  0  0  0  0
   -0.1061    1.8793    2.0093 C   0  0  0  0  0  0  0  0  0  0  0  0
   -1.2781    1.5578    1.4152 N   0  0  0  0  0  0  0  0  0  0  0  0
    0.0486    2.0493    3.4722 C   0  0  0  0  0  0  0  0  0  0  0  0
    1.2935    2.3904    4.0345 C   0  0  0  0  0  0  0  0  0  0  0  0
    1.4265    2.5458    5.4179 C   0  0  0  0  0  0  0  0  0  0  0  0
    0.3226    2.3635    6.2536 C   0  0  0  0  0  0  0  0  0  0  0  0
   -0.9174    2.0248    5.7078 C   0  0  0  0  0  0  0  0  0  0  0  0
   -1.0563    1.8680    4.3253 C   0  0  0  0  0  0  0  0  0  0  0  0
    0.3196   -1.7359   -3.2206 C   0  0  0  0  0  0  0  0  0  0  0  0
    0.9580   -1.2548   -4.3787 C   0  0  0  0  0  0  0  0  0  0  0  0
    2.1292   -1.8586   -4.8457 C   0  0  0  0  0  0  0  0  0  0  0  0
    2.6721   -2.9532   -4.1692 C   0  0  0  0  0  0  0  0  0  0  0  0
    3.8078   -3.5358   -4.6267 F   0  0  0  0  0  0  0  0  0  0  0  0
    2.0407   -3.4491   -3.0252 C   0  0  0  0  0  0  0  0  0  0  0  0
    2.5589   -4.5201   -2.3743 F   0  0  0  0  0  0  0  0  0  0  0  0
    0.8692   -2.8474   -2.5533 C   0  0  0  0  0  0  0  0  0  0  0  0
   -0.6646   -1.5863   -0.6523 H   0  0  0  0  0  0  0  0  0  0  0  0
   -3.3642   -0.7300   -1.4703 H   0  0  0  0  0  0  0  0  0  0  0  0
   -2.7019   -0.8288    0.1930 H   0  0  0  0  0  0  0  0  0  0  0  0
   -2.1812    1.4550   -1.8304 H   0  0  0  0  0  0  0  0  0  0  0  0
   -3.2485    1.5183   -0.3953 H   0  0  0  0  0  0  0  0  0  0  0  0
    0.4157    1.6324   -1.4789 H   0  0  0  0  0  0  0  0  0  0  0  0
    2.1652    2.5371    3.4105 H   0  0  0  0  0  0  0  0  0  0  0  0
    2.3872    2.8082    5.8421 H   0  0  0  0  0  0  0  0  0  0  0  0
    0.4280    2.4842    7.3241 H   0  0  0  0  0  0  0  0  0  0  0  0
   -1.7724    1.8835    6.3563 H   0  0  0  0  0  0  0  0  0  0  0  0
   -2.0275    1.6043    3.9254 H   0  0  0  0  0  0  0  0  0  0  0  0
    0.5585   -0.4032   -4.9156 H   0  0  0  0  0  0  0  0  0  0  0  0
    2.6158   -1.4758   -5.7337 H   0  0  0  0  0  0  0  0  0  0  0  0
    0.3857   -3.2714   -1.6836 H   0  0  0  0  0  0  0  0  0  0  0  0
  1  2  2  0
  2  3  1  0
  3  4  1  0
  4  5  1  0
  5  6  1  0
  6  7  2  0
  7  8  1  0
  8  9  1  0
  9 10  2  0
  9 11  1  0
 11 12  2  0
 12 13  1  0
 13 14  2  0
 14 15  1  0
 15 16  2  0
  2 17  1  0
 17 18  2  0
 18 19  1  0
 19 20  2  0
 20 21  1  0
 20 22  1  0
 22 23  1  0
 22 24  2  0
 10  6  1  0
 11 16  1  0
 24 17  1  0
  3 25  1  0
  4 26  1  0
  4 27  1  0
  5 28  1  0
  5 29  1  0
  7 30  1  0
 12 31  1  0
 13 32  1  0
 14 33  1  0
 15 34  1  0
 16 35  1  0
 18 36  1  0
 19 37  1  0
 24 38  1  0
M  END
$$$$
