
     RDKit          3D

 47 49  0  0  0  0  0  0  0  0999 V2000
    2.6322    2.0490   -2.6631 C   0  0  0  0  0  0  0  0  0  0  0  0
    3.2516    1.0043   -1.9351 O   0  0  0  0  0  0  0  0  0  0  0  0
    3.1986    1.2157   -0.5276 C   0  0  0  0  0  0  0  0  0  0  0  0
    3.9956    0.1347    0.1670 C   0  0  0  0  0  0  0  0  0  0  0  0
    4.5698    0.8362    1.3863 C   0  0  0  0  0  0  0  0  0  0  0  0
    4.5171    2.2314    1.1949 O   0  0  0  0  0  0  0  0  0  0  0  0
    3.9902    2.4558   -0.0908 C   0  0  0  0  0  0  0  0  0  0  0  0
    1.7681    1.2073    0.0083 C   0  0  0  0  0  0  0  0  0  0  0  0
    1.3028    2.0795    0.9299 N   0  0  0  0  0  0  0  0  0  0  0  0
    0.0577    1.7256    1.2192 N   0  0  0  0  0  0  0  0  0  0  0  0
   -0.2139    0.6378    0.4761 C   0  0  0  0  0  0  0  0  0  0  0  0
   -1.4976   -0.1303    0.5166 C   0  0  0  0  0  0  0  0  0  0  0  0
   -1.4271   -1.3310   -0.3366 N   0  0  0  0  0  0  0  0  0  0  0  0
   -0.5254   -1.3541   -1.5052 C   0  0  0  0  0  0  0  0  0  0  0  0
    0.8901   -0.9208   -1.1081 C   0  0  0  0  0  0  0  0  0  0  0  0
    0.8224    0.2937   -0.3001 N   0  0  0  0  0  0  0  0  0  0  0  0
   -2.4395   -2.3447   -0.1790 C   0  0  0  0  0  0  0  0  0  0  0  0
   -2.4584   -3.3448   -0.9475 O   0  0  0  0  0  0  0  0  0  0  0  0
   -3.4007   -2.2085    0.8367 O   0  0  0  0  0  0  0  0  0  0  0  0
   -4.4774   -3.1149    1.1194 C   0  0  0  0  0  0  0  0  0  0  0  0
   -5.2509   -2.5403    2.3159 C   0  0  0  0  0  0  0  0  0  0  0  0
   -3.9328   -4.5050    1.5011 C   0  0  0  0  0  0  0  0  0  0  0  0
   -5.4307   -3.2171   -0.0866 C   0  0  0  0  0  0  0  0  0  0  0  0
    1.5720    2.1976   -2.3668 H   0  0  0  0  0  0  0  0  0  0  0  0
    3.1979    2.9999   -2.5701 H   0  0  0  0  0  0  0  0  0  0  0  0
    2.6329    1.7730   -3.7373 H   0  0  0  0  0  0  0  0  0  0  0  0
    3.3903   -0.7525    0.4550 H   0  0  0  0  0  0  0  0  0  0  0  0
    4.8320   -0.2064   -0.4843 H   0  0  0  0  0  0  0  0  0  0  0  0
    3.9703    0.5773    2.2856 H   0  0  0  0  0  0  0  0  0  0  0  0
    5.6210    0.5211    1.5594 H   0  0  0  0  0  0  0  0  0  0  0  0
    4.8393    2.6346   -0.7880 H   0  0  0  0  0  0  0  0  0  0  0  0
    3.3583    3.3697   -0.0853 H   0  0  0  0  0  0  0  0  0  0  0  0
   -2.3290    0.5208    0.1730 H   0  0  0  0  0  0  0  0  0  0  0  0
   -1.6824   -0.4272    1.5713 H   0  0  0  0  0  0  0  0  0  0  0  0
   -0.4638   -2.3686   -1.9533 H   0  0  0  0  0  0  0  0  0  0  0  0
   -0.9200   -0.6599   -2.2785 H   0  0  0  0  0  0  0  0  0  0  0  0
    1.4858   -0.7488   -2.0271 H   0  0  0  0  0  0  0  0  0  0  0  0
    1.3676   -1.7289   -0.5139 H   0  0  0  0  0  0  0  0  0  0  0  0
   -6.1140   -3.1881    2.5817 H   0  0  0  0  0  0  0  0  0  0  0  0
   -5.6320   -1.5242    2.0761 H   0  0  0  0  0  0  0  0  0  0  0  0
   -4.5847   -2.4580    3.2017 H   0  0  0  0  0  0  0  0  0  0  0  0
   -3.4485   -5.0027    0.6365 H   0  0  0  0  0  0  0  0  0  0  0  0
   -4.7565   -5.1646    1.8499 H   0  0  0  0  0  0  0  0  0  0  0  0
   -3.1832   -4.4122    2.3162 H   0  0  0  0  0  0  0  0  0  0  0  0
   -4.9377   -3.7034   -0.9525 H   0  0  0  0  0  0  0  0  0  0  0  0
   -6.3272   -3.8208    0.1736 H   0  0  0  0  0  0  0  0  0  0  0  0
   -5.7644   -2.2042   -0.3986 H   0  0  0  0  0  0  0  0  0  0  0  0
  1  2  1  0
  2  3  1  0
  3  4  1  0
  4  5  1  0
  5  6  1  0
  6  7  1  0
  3  8  1  0
  8  9  2  0
  9 10  1  0
 10 11  2  0
 11 12  1  0
 12 13  1  0
 13 14  1  0
 14 15  1  0
 15 16  1  0
 13 17  1  0
 17 18  2  0
 17 19  1  0
 19 20  1  0
 20 21  1  0
 20 22  1  0
 20 23  1  0
  7  3  1  0
 16  8  1  0
 16 11  1  0
  1 24  1  0
  1 25  1  0
  1 26  1  0
  4 27  1  0
  4 28  1  0
  5 29  1  0
  5 30  1  0
  7 31  1  0
  7 32  1  0
 12 33  1  0
 12 34  1  0
 14 35  1  0
 14 36  1  0
 15 37  1  0
 15 38  1  0
 21 39  1  0
 21 40  1  0
 21 41  1  0
 22 42  1  0
 22 43  1  0
 22 44  1  0
 23 45  1  0
 23 46  1  0
 23 47  1  0
M  END
$$$$
