
     RDKit          3D

 42 45  0  0  0  0  0  0  0  0999 V2000
   -1.4697    0.0662   -1.9095 O   0  0  0  0  0  0  0  0  0  0  0  0
   -0.7994   -0.1260   -0.8588 C   0  0  0  0  0  0  0  0  0  0  0  0
   -1.1303    0.5909    0.3422 N   0  0  0  0  0  0  0  0  0  0  0  0
   -2.1966    1.5978    0.3737 C   0  0  0  0  0  0  0  0  0  0  0  0
   -1.7800    2.8249   -0.4053 C   0  0  0  0  0  0  0  0  0  0  0  0
   -2.6545    3.4096   -1.3344 C   0  0  0  0  0  0  0  0  0  0  0  0
   -2.2692    4.5542   -2.0342 C   0  0  0  0  0  0  0  0  0  0  0  0
   -1.0129    5.1128   -1.7941 C   0  0  0  0  0  0  0  0  0  0  0  0
   -0.1785    4.5456   -0.8834 N   0  0  0  0  0  0  0  0  0  0  0  0
   -0.5296    3.4303   -0.1892 C   0  0  0  0  0  0  0  0  0  0  0  0
   -2.4991    2.0019    1.8291 C   0  0  0  0  0  0  0  0  0  0  0  0
   -3.4760    1.0977    2.5658 C   0  0  0  0  0  0  0  0  0  0  0  0
   -3.9200    2.4755    2.0978 C   0  0  0  0  0  0  0  0  0  0  0  0
    0.3159   -1.0889   -0.8936 C   0  0  0  0  0  0  0  0  0  0  0  0
    1.1800   -1.4041    0.1416 C   0  0  0  0  0  0  0  0  0  0  0  0
    2.0351   -2.3480   -0.4006 C   0  0  0  0  0  0  0  0  0  0  0  0
    1.6805   -2.5616   -1.6842 N   0  0  0  0  0  0  0  0  0  0  0  0
    0.6424   -1.8012   -1.9897 N   0  0  0  0  0  0  0  0  0  0  0  0
    3.1621   -3.0207    0.2933 C   0  0  0  0  0  0  0  0  0  0  0  0
    3.6941   -4.2260   -0.2037 C   0  0  0  0  0  0  0  0  0  0  0  0
    4.7551   -4.8571    0.4532 C   0  0  0  0  0  0  0  0  0  0  0  0
    5.2971   -4.2956    1.6108 C   0  0  0  0  0  0  0  0  0  0  0  0
    4.7782   -3.1018    2.1153 C   0  0  0  0  0  0  0  0  0  0  0  0
    3.7168   -2.4664    1.4635 C   0  0  0  0  0  0  0  0  0  0  0  0
   -0.6029    0.3885    1.2203 H   0  0  0  0  0  0  0  0  0  0  0  0
   -3.1050    1.1497   -0.0910 H   0  0  0  0  0  0  0  0  0  0  0  0
   -3.6321    2.9811   -1.5171 H   0  0  0  0  0  0  0  0  0  0  0  0
   -2.9391    5.0057   -2.7545 H   0  0  0  0  0  0  0  0  0  0  0  0
   -0.7022    6.0000   -2.3292 H   0  0  0  0  0  0  0  0  0  0  0  0
    0.1641    3.0158    0.5308 H   0  0  0  0  0  0  0  0  0  0  0  0
   -1.7106    2.4630    2.4626 H   0  0  0  0  0  0  0  0  0  0  0  0
   -3.3030    1.0289    3.6605 H   0  0  0  0  0  0  0  0  0  0  0  0
   -3.9089    0.2594    1.9788 H   0  0  0  0  0  0  0  0  0  0  0  0
   -4.6150    2.4579    1.2311 H   0  0  0  0  0  0  0  0  0  0  0  0
   -4.0076    3.2225    2.9146 H   0  0  0  0  0  0  0  0  0  0  0  0
    1.1825   -1.0139    1.1494 H   0  0  0  0  0  0  0  0  0  0  0  0
    2.1442   -3.2004   -2.3663 H   0  0  0  0  0  0  0  0  0  0  0  0
    3.2837   -4.6950   -1.0873 H   0  0  0  0  0  0  0  0  0  0  0  0
    5.1550   -5.7853    0.0658 H   0  0  0  0  0  0  0  0  0  0  0  0
    6.1183   -4.7860    2.1173 H   0  0  0  0  0  0  0  0  0  0  0  0
    5.2005   -2.6660    3.0116 H   0  0  0  0  0  0  0  0  0  0  0  0
    3.3442   -1.5355    1.8695 H   0  0  0  0  0  0  0  0  0  0  0  0
  1  2  2  0
  2  3  1  0
  3  4  1  0
  4  5  1  0
  5  6  2  0
  6  7  1  0
  7  8  2  0
  8  9  1  0
  9 10  2  0
  4 11  1  0
 11 12  1  0
 12 13  1  0
  2 14  1  0
 14 15  1  0
 15 16  2  0
 16 17  1  0
 17 18  1  0
 16 19  1  0
 19 20  2  0
 20 21  1  0
 21 22  2  0
 22 23  1  0
 23 24  2  0
  5 10  1  0
 13 11  1  0
 14 18  2  0
 19 24  1  0
  3 25  1  0
  4 26  1  0
  6 27  1  0
  7 28  1  0
  8 29  1  0
 10 30  1  0
 11 31  1  0
 12 32  1  0
 12 33  1  0
 13 34  1  0
 13 35  1  0
 15 36  1  0
 17 37  1  0
 20 38  1  0
 21 39  1  0
 22 40  1  0
 23 41  1  0
 24 42  1  0
M  END
$$$$
