
     RDKit          3D

 43 46  0  0  0  0  0  0  0  0999 V2000
    0.4185    3.5441   -2.6089 C   0  0  0  0  0  0  0  0  0  0  0  0
   -0.6683    2.7974   -1.9800 N   0  0  0  0  0  0  0  0  0  0  0  0
   -1.7315    2.2199   -2.5915 C   0  0  0  0  0  0  0  0  0  0  0  0
   -1.9615    2.3235   -3.8255 O   0  0  0  0  0  0  0  0  0  0  0  0
   -2.5060    1.4976   -1.7430 N   0  0  0  0  0  0  0  0  0  0  0  0
   -3.6693    0.6713   -2.0760 C   0  0  0  0  0  0  0  0  0  0  0  0
   -1.8745    1.5961   -0.5567 C   0  0  0  0  0  0  0  0  0  0  0  0
   -2.1921    0.9806    0.6538 C   0  0  0  0  0  0  0  0  0  0  0  0
   -1.3291    1.1869    1.7517 C   0  0  0  0  0  0  0  0  0  0  0  0
   -0.1736    2.0105    1.5998 C   0  0  0  0  0  0  0  0  0  0  0  0
    1.0473    2.3388    3.0438 Br  0  0  0  0  0  0  0  0  0  0  0  0
    0.1169    2.6067    0.3571 C   0  0  0  0  0  0  0  0  0  0  0  0
   -0.7603    2.3790   -0.7009 C   0  0  0  0  0  0  0  0  0  0  0  0
   -1.6601    0.3521    3.2743 S   0  0  0  0  0  0  0  0  0  0  0  0
   -2.9094   -0.4787    3.1726 O   0  0  0  0  0  0  0  0  0  0  0  0
   -1.8509    1.3840    4.3532 O   0  0  0  0  0  0  0  0  0  0  0  0
   -0.3210   -0.6791    3.6865 N   0  0  0  0  0  0  0  0  0  0  0  0
    0.4810   -1.3192    2.6852 C   0  0  0  0  0  0  0  0  0  0  0  0
   -0.0945   -1.8008    1.4840 C   0  0  0  0  0  0  0  0  0  0  0  0
    0.7121   -2.3739    0.4847 C   0  0  0  0  0  0  0  0  0  0  0  0
    2.0857   -2.4596    0.7091 C   0  0  0  0  0  0  0  0  0  0  0  0
    3.1394   -2.9955   -0.2052 C   0  0  0  0  0  0  0  0  0  0  0  0
    4.4485   -2.7209    0.5732 C   0  0  0  0  0  0  0  0  0  0  0  0
    4.0407   -2.1751    1.8666 N   0  0  0  0  0  0  0  0  0  0  0  0
    2.6400   -2.0181    1.8749 C   0  0  0  0  0  0  0  0  0  0  0  0
    1.8677   -1.4527    2.8888 C   0  0  0  0  0  0  0  0  0  0  0  0
    1.2250    2.8429   -2.9197 H   0  0  0  0  0  0  0  0  0  0  0  0
    0.8287    4.2940   -1.8988 H   0  0  0  0  0  0  0  0  0  0  0  0
    0.0429    4.0852   -3.5044 H   0  0  0  0  0  0  0  0  0  0  0  0
   -4.4873    0.8526   -1.3417 H   0  0  0  0  0  0  0  0  0  0  0  0
   -4.0392    0.9181   -3.0953 H   0  0  0  0  0  0  0  0  0  0  0  0
   -3.3823   -0.4072   -2.0566 H   0  0  0  0  0  0  0  0  0  0  0  0
   -3.0645    0.3448    0.7344 H   0  0  0  0  0  0  0  0  0  0  0  0
    1.0025    3.2161    0.2297 H   0  0  0  0  0  0  0  0  0  0  0  0
    0.0043   -0.6848    4.6836 H   0  0  0  0  0  0  0  0  0  0  0  0
   -1.1607   -1.7317    1.3200 H   0  0  0  0  0  0  0  0  0  0  0  0
    0.2788   -2.7293   -0.4429 H   0  0  0  0  0  0  0  0  0  0  0  0
    3.1294   -2.4575   -1.1813 H   0  0  0  0  0  0  0  0  0  0  0  0
    2.9891   -4.0909   -0.3620 H   0  0  0  0  0  0  0  0  0  0  0  0
    5.0274   -3.6573    0.7210 H   0  0  0  0  0  0  0  0  0  0  0  0
    5.0708   -1.9725    0.0345 H   0  0  0  0  0  0  0  0  0  0  0  0
    4.6877   -1.8601    2.6263 H   0  0  0  0  0  0  0  0  0  0  0  0
    2.3355   -1.0892    3.7983 H   0  0  0  0  0  0  0  0  0  0  0  0
  1  2  1  0
  2  3  1  0
  3  4  2  0
  3  5  1  0
  5  6  1  0
  5  7  1  0
  7  8  2  0
  8  9  1  0
  9 10  2  0
 10 11  1  0
 10 12  1  0
 12 13  2  0
  9 14  1  0
 14 15  2  0
 14 16  2  0
 14 17  1  0
 17 18  1  0
 18 19  2  0
 19 20  1  0
 20 21  2  0
 21 22  1  0
 22 23  1  0
 23 24  1  0
 24 25  1  0
 25 26  2  0
 13  2  1  0
  7 13  1  0
 18 26  1  0
 21 25  1  0
  1 27  1  0
  1 28  1  0
  1 29  1  0
  6 30  1  0
  6 31  1  0
  6 32  1  0
  8 33  1  0
 12 34  1  0
 17 35  1  0
 19 36  1  0
 20 37  1  0
 22 38  1  0
 22 39  1  0
 23 40  1  0
 23 41  1  0
 24 42  1  0
 26 43  1  0
M  END
$$$$
