
     RDKit          3D

 40 42  0  0  0  0  0  0  0  0999 V2000
   -1.1803   -3.1383   -2.9154 C   0  0  0  0  0  0  0  0  0  0  0  0
   -0.4938   -1.9468   -2.2356 C   0  0  0  0  0  0  0  0  0  0  0  0
    0.1211   -1.0256   -3.3073 C   0  0  0  0  0  0  0  0  0  0  0  0
    0.8679    0.1207   -2.6878 C   0  0  0  0  0  0  0  0  0  0  0  0
    2.0894   -0.0177   -2.4071 O   0  0  0  0  0  0  0  0  0  0  0  0
    0.1880    1.3466   -2.3824 N   0  0  0  0  0  0  0  0  0  0  0  0
    0.8095    2.4144   -1.6033 C   0  0  0  0  0  0  0  0  0  0  0  0
    0.6933    2.1105   -0.1356 C   0  0  0  0  0  0  0  0  0  0  0  0
    1.7180    1.4255    0.5324 C   0  0  0  0  0  0  0  0  0  0  0  0
    1.5809    1.0869    1.8815 C   0  0  0  0  0  0  0  0  0  0  0  0
    0.4118    1.4260    2.5900 C   0  0  0  0  0  0  0  0  0  0  0  0
   -0.6141    2.1093    1.9111 C   0  0  0  0  0  0  0  0  0  0  0  0
   -0.4764    2.4435    0.5612 C   0  0  0  0  0  0  0  0  0  0  0  0
    0.2471    1.0776    3.9811 N   0  0  0  0  0  0  0  0  0  0  0  0
    1.1353    0.4861    4.8050 C   0  0  0  0  0  0  0  0  0  0  0  0
    0.6250    0.3216    6.0405 N   0  0  0  0  0  0  0  0  0  0  0  0
   -0.6131    0.8431    5.9171 C   0  0  0  0  0  0  0  0  0  0  0  0
   -0.8543    1.3037    4.6757 N   0  0  0  0  0  0  0  0  0  0  0  0
    0.5306   -2.4304   -1.3943 O   0  0  0  0  0  0  0  0  0  0  0  0
    0.0589   -2.2884   -0.0925 C   0  0  0  0  0  0  0  0  0  0  0  0
   -1.1293   -1.3748   -0.1584 C   0  0  0  0  0  0  0  0  0  0  0  0
   -1.4612   -1.2263   -1.5030 O   0  0  0  0  0  0  0  0  0  0  0  0
   -1.6315   -3.8052   -2.1495 H   0  0  0  0  0  0  0  0  0  0  0  0
   -1.9868   -2.7861   -3.5944 H   0  0  0  0  0  0  0  0  0  0  0  0
   -0.4446   -3.7269   -3.5045 H   0  0  0  0  0  0  0  0  0  0  0  0
    0.8216   -1.6063   -3.9481 H   0  0  0  0  0  0  0  0  0  0  0  0
   -0.6805   -0.6269   -3.9671 H   0  0  0  0  0  0  0  0  0  0  0  0
   -0.8147    1.4540   -2.6573 H   0  0  0  0  0  0  0  0  0  0  0  0
    0.2963    3.3749   -1.8267 H   0  0  0  0  0  0  0  0  0  0  0  0
    1.8729    2.5428   -1.9019 H   0  0  0  0  0  0  0  0  0  0  0  0
    2.6229    1.1471    0.0076 H   0  0  0  0  0  0  0  0  0  0  0  0
    2.3903    0.5527    2.3568 H   0  0  0  0  0  0  0  0  0  0  0  0
   -1.5287    2.3779    2.4231 H   0  0  0  0  0  0  0  0  0  0  0  0
   -1.2871    2.9536    0.0561 H   0  0  0  0  0  0  0  0  0  0  0  0
    2.1355    0.1809    4.5336 H   0  0  0  0  0  0  0  0  0  0  0  0
   -1.3319    0.8844    6.7242 H   0  0  0  0  0  0  0  0  0  0  0  0
   -0.2332   -3.2861    0.3031 H   0  0  0  0  0  0  0  0  0  0  0  0
    0.8555   -1.8560    0.5507 H   0  0  0  0  0  0  0  0  0  0  0  0
   -1.9912   -1.8029    0.3962 H   0  0  0  0  0  0  0  0  0  0  0  0
   -0.8810   -0.3823    0.2673 H   0  0  0  0  0  0  0  0  0  0  0  0
  1  2  1  0
  2  3  1  0
  3  4  1  0
  4  5  2  0
  4  6  1  0
  6  7  1  0
  7  8  1  0
  8  9  2  0
  9 10  1  0
 10 11  2  0
 11 12  1  0
 12 13  2  0
 11 14  1  0
 14 15  1  0
 15 16  2  0
 16 17  1  0
 17 18  2  0
  2 19  1  0
 19 20  1  0
 20 21  1  0
 21 22  1  0
 22  2  1  0
  8 13  1  0
 18 14  1  0
  1 23  1  0
  1 24  1  0
  1 25  1  0
  3 26  1  0
  3 27  1  0
  6 28  1  0
  7 29  1  0
  7 30  1  0
  9 31  1  0
 10 32  1  0
 12 33  1  0
 13 34  1  0
 15 35  1  0
 17 36  1  0
 20 37  1  0
 20 38  1  0
 21 39  1  0
 21 40  1  0
M  END
$$$$
