
     RDKit          3D

 45 48  0  0  0  0  0  0  0  0999 V2000
   -3.3505   -1.0053    1.6332 O   0  0  0  0  0  0  0  0  0  0  0  0
   -2.1769   -1.0828    1.1769 C   0  0  0  0  0  0  0  0  0  0  0  0
   -1.2837   -2.1583    1.6669 C   0  0  0  0  0  0  0  0  0  0  0  0
   -1.8326   -3.3842    2.1182 C   0  0  0  0  0  0  0  0  0  0  0  0
   -1.0014   -4.4089    2.5965 C   0  0  0  0  0  0  0  0  0  0  0  0
    0.3700   -4.1821    2.6231 C   0  0  0  0  0  0  0  0  0  0  0  0
    1.5952   -5.2040    3.1393 S   0  0  0  0  0  0  0  0  0  0  0  0
    2.7990   -4.0633    2.7973 C   0  0  0  0  0  0  0  0  0  0  0  0
    2.2792   -2.9157    2.2966 N   0  0  0  0  0  0  0  0  0  0  0  0
    0.9268   -2.9886    2.2010 C   0  0  0  0  0  0  0  0  0  0  0  0
    0.1143   -1.9603    1.7235 C   0  0  0  0  0  0  0  0  0  0  0  0
   -1.7316   -0.1136    0.2087 N   0  0  0  0  0  0  0  0  0  0  0  0
   -2.2534    1.2565    0.2850 C   0  0  0  0  0  0  0  0  0  0  0  0
   -1.6188    2.1650   -0.7814 C   0  0  0  0  0  0  0  0  0  0  0  0
   -0.0905    1.9135   -0.9235 C   0  0  0  0  0  0  0  0  0  0  0  0
    0.6263    2.2785    0.4260 C   0  0  0  0  0  0  0  0  0  0  0  0
    2.0047    2.9538    0.2665 C   0  0  0  0  0  0  0  0  0  0  0  0
    2.7602    2.4542   -0.9719 C   0  0  0  0  0  0  0  0  0  0  0  0
    4.0116    3.0861   -1.0543 O   0  0  0  0  0  0  0  0  0  0  0  0
    1.9655    2.7313   -2.2661 C   0  0  0  0  0  0  0  0  0  0  0  0
    0.4407    2.8400   -2.0520 C   0  0  0  0  0  0  0  0  0  0  0  0
    0.1617    0.4082   -1.3058 C   0  0  0  0  0  0  0  0  0  0  0  0
   -1.0131   -0.5379   -0.9984 C   0  0  0  0  0  0  0  0  0  0  0  0
   -2.9024   -3.5500    2.0892 H   0  0  0  0  0  0  0  0  0  0  0  0
   -1.4174   -5.3487    2.9357 H   0  0  0  0  0  0  0  0  0  0  0  0
    3.8579   -4.2156    2.9545 H   0  0  0  0  0  0  0  0  0  0  0  0
    0.5598   -1.0242    1.4172 H   0  0  0  0  0  0  0  0  0  0  0  0
   -2.0387    1.6703    1.2939 H   0  0  0  0  0  0  0  0  0  0  0  0
   -3.3563    1.2472    0.1469 H   0  0  0  0  0  0  0  0  0  0  0  0
   -1.8206    3.2273   -0.5195 H   0  0  0  0  0  0  0  0  0  0  0  0
   -2.1201    1.9716   -1.7561 H   0  0  0  0  0  0  0  0  0  0  0  0
    0.0027    2.9815    1.0211 H   0  0  0  0  0  0  0  0  0  0  0  0
    0.7365    1.3736    1.0610 H   0  0  0  0  0  0  0  0  0  0  0  0
    1.8683    4.0552    0.1843 H   0  0  0  0  0  0  0  0  0  0  0  0
    2.6108    2.7621    1.1787 H   0  0  0  0  0  0  0  0  0  0  0  0
    2.9156    1.3552   -0.8770 H   0  0  0  0  0  0  0  0  0  0  0  0
    4.5907    2.6715   -0.3621 H   0  0  0  0  0  0  0  0  0  0  0  0
    2.1799    1.9212   -2.9967 H   0  0  0  0  0  0  0  0  0  0  0  0
    2.3149    3.6805   -2.7296 H   0  0  0  0  0  0  0  0  0  0  0  0
   -0.0751    2.6182   -3.0125 H   0  0  0  0  0  0  0  0  0  0  0  0
    0.1987    3.8965   -1.7971 H   0  0  0  0  0  0  0  0  0  0  0  0
    1.0625    0.0171   -0.7888 H   0  0  0  0  0  0  0  0  0  0  0  0
    0.3762    0.3079   -2.3924 H   0  0  0  0  0  0  0  0  0  0  0  0
   -0.6360   -1.5788   -0.9070 H   0  0  0  0  0  0  0  0  0  0  0  0
   -1.7242   -0.5307   -1.8533 H   0  0  0  0  0  0  0  0  0  0  0  0
  1  2  2  0
  2  3  1  0
  3  4  2  0
  4  5  1  0
  5  6  2  0
  6  7  1  0
  7  8  1  0
  8  9  2  0
  9 10  1  0
 10 11  2  0
  2 12  1  0
 12 13  1  0
 13 14  1  0
 14 15  1  0
 15 16  1  0
 16 17  1  0
 17 18  1  0
 18 19  1  0
 18 20  1  0
 20 21  1  0
 15 22  1  0
 22 23  1  0
  3 11  1  0
  6 10  1  0
 23 12  1  0
 21 15  1  0
  4 24  1  0
  5 25  1  0
  8 26  1  0
 11 27  1  0
 13 28  1  0
 13 29  1  0
 14 30  1  0
 14 31  1  0
 16 32  1  0
 16 33  1  0
 17 34  1  0
 17 35  1  0
 18 36  1  0
 19 37  1  0
 20 38  1  0
 20 39  1  0
 21 40  1  0
 21 41  1  0
 22 42  1  0
 22 43  1  0
 23 44  1  0
 23 45  1  0
M  END
$$$$
