
     RDKit          3D

 45 47  0  0  0  0  0  0  0  0999 V2000
   -4.1707   -1.9149    2.1323 C   0  0  0  0  0  0  0  0  0  0  0  0
   -3.4020   -0.6256    1.7917 C   0  0  0  0  0  0  0  0  0  0  0  0
   -2.0991   -0.9637    1.2081 N   0  0  0  0  0  0  0  0  0  0  0  0
   -1.4426   -0.1113    0.2537 C   0  0  0  0  0  0  0  0  0  0  0  0
   -1.9233    1.0283    0.0030 O   0  0  0  0  0  0  0  0  0  0  0  0
   -0.2002   -0.5401   -0.4344 C   0  0  0  0  0  0  0  0  0  0  0  0
    0.1245   -1.9022   -0.5736 C   0  0  0  0  0  0  0  0  0  0  0  0
    1.2901   -2.2881   -1.2421 C   0  0  0  0  0  0  0  0  0  0  0  0
    2.1390   -1.3284   -1.8019 C   0  0  0  0  0  0  0  0  0  0  0  0
    1.8265    0.0333   -1.6564 C   0  0  0  0  0  0  0  0  0  0  0  0
    0.6633    0.4226   -0.9877 C   0  0  0  0  0  0  0  0  0  0  0  0
    3.3027   -1.7553   -2.4587 O   0  0  0  0  0  0  0  0  0  0  0  0
    3.9128   -1.0960   -3.5360 C   0  0  0  0  0  0  0  0  0  0  0  0
    5.2986   -1.2129   -3.7007 C   0  0  0  0  0  0  0  0  0  0  0  0
    5.9394   -0.5812   -4.7714 C   0  0  0  0  0  0  0  0  0  0  0  0
    5.1950    0.1600   -5.6953 C   0  0  0  0  0  0  0  0  0  0  0  0
    5.9988    0.9464   -7.0418 Cl  0  0  0  0  0  0  0  0  0  0  0  0
    3.8078    0.2623   -5.5517 C   0  0  0  0  0  0  0  0  0  0  0  0
    3.1661   -0.3671   -4.4807 C   0  0  0  0  0  0  0  0  0  0  0  0
   -3.2135    0.3435    2.9958 C   0  0  0  0  0  0  0  0  0  0  0  0
   -2.4032   -0.2398    4.1524 C   0  0  0  0  0  0  0  0  0  0  0  0
   -3.3460   -0.2638    5.3491 C   0  0  0  0  0  0  0  0  0  0  0  0
   -4.6937    0.0690    4.8899 N   0  0  0  0  0  0  0  0  0  0  0  0
   -4.5335    0.7869    3.6282 C   0  0  0  0  0  0  0  0  0  0  0  0
   -4.2052   -2.5731    1.2381 H   0  0  0  0  0  0  0  0  0  0  0  0
   -3.6880   -2.4759    2.9572 H   0  0  0  0  0  0  0  0  0  0  0  0
   -5.2180   -1.6862    2.4156 H   0  0  0  0  0  0  0  0  0  0  0  0
   -4.0072   -0.0976    1.0207 H   0  0  0  0  0  0  0  0  0  0  0  0
   -1.5895   -1.7940    1.5843 H   0  0  0  0  0  0  0  0  0  0  0  0
   -0.5300   -2.6748   -0.1946 H   0  0  0  0  0  0  0  0  0  0  0  0
    1.5232   -3.3401   -1.3446 H   0  0  0  0  0  0  0  0  0  0  0  0
    2.4881    0.7958   -2.0475 H   0  0  0  0  0  0  0  0  0  0  0  0
    0.4434    1.4796   -0.8954 H   0  0  0  0  0  0  0  0  0  0  0  0
    5.8812   -1.7852   -2.9902 H   0  0  0  0  0  0  0  0  0  0  0  0
    7.0127   -0.6701   -4.8826 H   0  0  0  0  0  0  0  0  0  0  0  0
    3.2254    0.8219   -6.2731 H   0  0  0  0  0  0  0  0  0  0  0  0
    2.0884   -0.3036   -4.4020 H   0  0  0  0  0  0  0  0  0  0  0  0
   -2.6909    1.2513    2.6171 H   0  0  0  0  0  0  0  0  0  0  0  0
   -1.5281    0.4103    4.3744 H   0  0  0  0  0  0  0  0  0  0  0  0
   -2.0183   -1.2590    3.9420 H   0  0  0  0  0  0  0  0  0  0  0  0
   -3.0260    0.4936    6.0973 H   0  0  0  0  0  0  0  0  0  0  0  0
   -3.3332   -1.2623    5.8405 H   0  0  0  0  0  0  0  0  0  0  0  0
   -5.2010   -0.8264    4.6941 H   0  0  0  0  0  0  0  0  0  0  0  0
   -4.4926    1.8767    3.8481 H   0  0  0  0  0  0  0  0  0  0  0  0
   -5.4088    0.6209    2.9607 H   0  0  0  0  0  0  0  0  0  0  0  0
  1  2  1  0
  2  3  1  0
  3  4  1  0
  4  5  2  0
  4  6  1  0
  6  7  2  0
  7  8  1  0
  8  9  2  0
  9 10  1  0
 10 11  2  0
  9 12  1  0
 12 13  1  0
 13 14  2  0
 14 15  1  0
 15 16  2  0
 16 17  1  0
 16 18  1  0
 18 19  2  0
  2 20  1  0
 20 21  1  0
 21 22  1  0
 22 23  1  0
 23 24  1  0
  6 11  1  0
 13 19  1  0
 24 20  1  0
  1 25  1  0
  1 26  1  0
  1 27  1  0
  2 28  1  0
  3 29  1  0
  7 30  1  0
  8 31  1  0
 10 32  1  0
 11 33  1  0
 14 34  1  0
 15 35  1  0
 18 36  1  0
 19 37  1  0
 20 38  1  0
 21 39  1  0
 21 40  1  0
 22 41  1  0
 22 42  1  0
 23 43  1  0
 24 44  1  0
 24 45  1  0
M  END
$$$$
