
     RDKit          3D

 46 48  0  0  0  0  0  0  0  0999 V2000
   -1.5872    0.6014    0.8987 C   0  0  0  0  0  0  0  0  0  0  0  0
   -0.1619    0.8968    1.4087 C   0  0  0  0  0  0  0  0  0  0  0  0
    0.0148    2.4211    1.5431 C   0  0  0  0  0  0  0  0  0  0  0  0
    0.0198    0.2924    2.7196 N   0  0  0  0  0  0  0  0  0  0  0  0
    1.2883   -0.3213    2.7915 C   0  0  0  0  0  0  0  0  0  0  0  0
    1.7313   -0.8486    3.8453 O   0  0  0  0  0  0  0  0  0  0  0  0
    2.0488   -0.2355    1.5283 C   0  0  0  0  0  0  0  0  0  0  0  0
    0.9979    0.2980    0.5254 C   0  0  0  0  0  0  0  0  0  0  0  0
    0.5510   -0.8171   -0.4072 C   0  0  0  0  0  0  0  0  0  0  0  0
    0.2347   -1.9343    0.0879 O   0  0  0  0  0  0  0  0  0  0  0  0
    0.4526   -0.6189   -1.8362 N   0  0  0  0  0  0  0  0  0  0  0  0
    0.5213    0.6895   -2.4718 C   0  0  0  0  0  0  0  0  0  0  0  0
    0.0733    0.4782   -3.9086 C   0  0  0  0  0  0  0  0  0  0  0  0
    0.2550   -1.0102   -4.1805 C   0  0  0  0  0  0  0  0  0  0  0  0
    0.2231   -1.7023   -2.8006 C   0  0  0  0  0  0  0  0  0  0  0  0
    1.3869   -2.7181   -2.6993 C   0  0  0  0  0  0  0  0  0  0  0  0
   -1.1569   -2.3425   -2.5760 C   0  0  0  0  0  0  0  0  0  0  0  0
   -1.4003   -3.7055   -2.8585 C   0  0  0  0  0  0  0  0  0  0  0  0
   -2.6740   -4.2550   -2.6838 C   0  0  0  0  0  0  0  0  0  0  0  0
   -3.7307   -3.4547   -2.2495 C   0  0  0  0  0  0  0  0  0  0  0  0
   -3.5199   -2.0987   -2.0020 C   0  0  0  0  0  0  0  0  0  0  0  0
   -2.2499   -1.5430   -2.1759 C   0  0  0  0  0  0  0  0  0  0  0  0
   -1.7937   -0.4891    0.8928 H   0  0  0  0  0  0  0  0  0  0  0  0
   -1.7249    1.0069   -0.1247 H   0  0  0  0  0  0  0  0  0  0  0  0
   -2.3406    1.0752    1.5639 H   0  0  0  0  0  0  0  0  0  0  0  0
    1.0259    2.6633    1.9358 H   0  0  0  0  0  0  0  0  0  0  0  0
   -0.1079    2.9144    0.5546 H   0  0  0  0  0  0  0  0  0  0  0  0
   -0.7375    2.8413    2.2449 H   0  0  0  0  0  0  0  0  0  0  0  0
   -0.6096    0.4396    3.5407 H   0  0  0  0  0  0  0  0  0  0  0  0
    2.8742    0.4984    1.6523 H   0  0  0  0  0  0  0  0  0  0  0  0
    2.4734   -1.2243    1.2476 H   0  0  0  0  0  0  0  0  0  0  0  0
    1.4849    1.0950   -0.0751 H   0  0  0  0  0  0  0  0  0  0  0  0
    1.5689    1.0600   -2.4488 H   0  0  0  0  0  0  0  0  0  0  0  0
   -0.1508    1.4127   -1.9623 H   0  0  0  0  0  0  0  0  0  0  0  0
   -1.0023    0.7438   -4.0077 H   0  0  0  0  0  0  0  0  0  0  0  0
    0.6677    1.0979   -4.6147 H   0  0  0  0  0  0  0  0  0  0  0  0
    1.2387   -1.1513   -4.6825 H   0  0  0  0  0  0  0  0  0  0  0  0
   -0.5324   -1.3867   -4.8710 H   0  0  0  0  0  0  0  0  0  0  0  0
    2.3599   -2.1827   -2.6529 H   0  0  0  0  0  0  0  0  0  0  0  0
    1.4141   -3.3845   -3.5878 H   0  0  0  0  0  0  0  0  0  0  0  0
    1.2937   -3.3453   -1.7883 H   0  0  0  0  0  0  0  0  0  0  0  0
   -0.6163   -4.3561   -3.2174 H   0  0  0  0  0  0  0  0  0  0  0  0
   -2.8431   -5.3034   -2.8931 H   0  0  0  0  0  0  0  0  0  0  0  0
   -4.7159   -3.8828   -2.1175 H   0  0  0  0  0  0  0  0  0  0  0  0
   -4.3439   -1.4736   -1.6830 H   0  0  0  0  0  0  0  0  0  0  0  0
   -2.1266   -0.4836   -2.0025 H   0  0  0  0  0  0  0  0  0  0  0  0
  1  2  1  0
  2  3  1  0
  2  4  1  0
  4  5  1  0
  5  6  2  0
  5  7  1  0
  7  8  1  0
  8  9  1  0
  9 10  2  0
  9 11  1  0
 11 12  1  0
 12 13  1  0
 13 14  1  0
 14 15  1  0
 15 16  1  0
 15 17  1  0
 17 18  2  0
 18 19  1  0
 19 20  2  0
 20 21  1  0
 21 22  2  0
  8  2  1  0
 15 11  1  0
 17 22  1  0
  1 23  1  0
  1 24  1  0
  1 25  1  0
  3 26  1  0
  3 27  1  0
  3 28  1  0
  4 29  1  0
  7 30  1  0
  7 31  1  0
  8 32  1  0
 12 33  1  0
 12 34  1  0
 13 35  1  0
 13 36  1  0
 14 37  1  0
 14 38  1  0
 16 39  1  0
 16 40  1  0
 16 41  1  0
 18 42  1  0
 19 43  1  0
 20 44  1  0
 21 45  1  0
 22 46  1  0
M  END
$$$$
