
     RDKit          3D

 34 35  0  0  0  0  0  0  0  0999 V2000
   -5.5609   -0.6206   -3.1975 N   0  0  0  0  0  0  0  0  0  0  0  0
   -4.4424   -0.2330   -2.3993 C   0  0  0  0  0  0  0  0  0  0  0  0
   -3.1586   -0.6971   -2.7033 C   0  0  0  0  0  0  0  0  0  0  0  0
   -2.0805   -0.3041   -1.9084 C   0  0  0  0  0  0  0  0  0  0  0  0
   -2.2851    0.5464   -0.8086 C   0  0  0  0  0  0  0  0  0  0  0  0
   -3.5919    0.9950   -0.5491 C   0  0  0  0  0  0  0  0  0  0  0  0
   -4.6252    0.5971   -1.3381 N   0  0  0  0  0  0  0  0  0  0  0  0
   -1.1558    0.9844    0.0469 C   0  0  0  0  0  0  0  0  0  0  0  0
   -1.2965    1.9945    0.7898 O   0  0  0  0  0  0  0  0  0  0  0  0
    0.0783    0.2472    0.0749 N   0  0  0  0  0  0  0  0  0  0  0  0
    1.3173    0.7946    0.5624 C   0  0  0  0  0  0  0  0  0  0  0  0
    1.6373    2.1465    0.3417 C   0  0  0  0  0  0  0  0  0  0  0  0
    2.8487    2.6708    0.7937 C   0  0  0  0  0  0  0  0  0  0  0  0
    3.7607    1.8512    1.4591 C   0  0  0  0  0  0  0  0  0  0  0  0
    5.2855    2.5135    2.0202 Cl  0  0  0  0  0  0  0  0  0  0  0  0
    3.4646    0.5018    1.6704 C   0  0  0  0  0  0  0  0  0  0  0  0
    2.2408   -0.0400    1.2254 C   0  0  0  0  0  0  0  0  0  0  0  0
    1.9033   -1.3924    1.4162 O   0  0  0  0  0  0  0  0  0  0  0  0
    2.6292   -2.3430    2.1978 C   0  0  0  0  0  0  0  0  0  0  0  0
    2.3058   -2.1941    3.6843 C   0  0  0  0  0  0  0  0  0  0  0  0
    0.9417   -2.3128    3.8798 F   0  0  0  0  0  0  0  0  0  0  0  0
    2.9503   -3.1887    4.3966 F   0  0  0  0  0  0  0  0  0  0  0  0
    2.7248   -0.9642    4.1553 F   0  0  0  0  0  0  0  0  0  0  0  0
   -6.5173   -0.2703   -2.9677 H   0  0  0  0  0  0  0  0  0  0  0  0
   -5.4412   -1.2563   -4.0175 H   0  0  0  0  0  0  0  0  0  0  0  0
   -2.9945   -1.3514   -3.5502 H   0  0  0  0  0  0  0  0  0  0  0  0
   -1.0898   -0.6513   -2.1701 H   0  0  0  0  0  0  0  0  0  0  0  0
   -3.7946    1.6543    0.2850 H   0  0  0  0  0  0  0  0  0  0  0  0
    0.0492   -0.7674   -0.1716 H   0  0  0  0  0  0  0  0  0  0  0  0
    0.9592    2.7927   -0.2001 H   0  0  0  0  0  0  0  0  0  0  0  0
    3.0814    3.7134    0.6174 H   0  0  0  0  0  0  0  0  0  0  0  0
    4.1960   -0.1087    2.1787 H   0  0  0  0  0  0  0  0  0  0  0  0
    2.3144   -3.3586    1.8772 H   0  0  0  0  0  0  0  0  0  0  0  0
    3.7208   -2.2736    2.0109 H   0  0  0  0  0  0  0  0  0  0  0  0
  1  2  1  0
  2  3  2  0
  3  4  1  0
  4  5  2  0
  5  6  1  0
  6  7  2  0
  5  8  1  0
  8  9  2  0
  8 10  1  0
 10 11  1  0
 11 12  2  0
 12 13  1  0
 13 14  2  0
 14 15  1  0
 14 16  1  0
 16 17  2  0
 17 18  1  0
 18 19  1  0
 19 20  1  0
 20 21  1  0
 20 22  1  0
 20 23  1  0
  2  7  1  0
 11 17  1  0
  1 24  1  0
  1 25  1  0
  3 26  1  0
  4 27  1  0
  6 28  1  0
 10 29  1  0
 12 30  1  0
 13 31  1  0
 16 32  1  0
 19 33  1  0
 19 34  1  0
M  END
$$$$
