
     RDKit          3D

 42 45  0  0  0  0  0  0  0  0999 V2000
   -3.3348   -1.4333   -0.3368 C   0  0  0  0  0  0  0  0  0  0  0  0
   -1.9909   -0.7909   -0.2548 C   0  0  0  0  0  0  0  0  0  0  0  0
   -1.3673   -0.6648    0.9601 N   0  0  0  0  0  0  0  0  0  0  0  0
   -0.1488   -0.0576    1.0868 C   0  0  0  0  0  0  0  0  0  0  0  0
    0.4419    0.4354   -0.0773 C   0  0  0  0  0  0  0  0  0  0  0  0
    1.6753    0.9759   -0.3860 C   0  0  0  0  0  0  0  0  0  0  0  0
    1.7281    1.1814   -1.7254 N   0  0  0  0  0  0  0  0  0  0  0  0
    0.5744    0.7938   -2.2617 N   0  0  0  0  0  0  0  0  0  0  0  0
    0.2939    0.8351   -3.6737 C   0  0  0  0  0  0  0  0  0  0  0  0
   -1.0209    0.9934   -4.1515 C   0  0  0  0  0  0  0  0  0  0  0  0
   -1.2725    1.0409   -5.5263 C   0  0  0  0  0  0  0  0  0  0  0  0
   -0.2178    0.9395   -6.4363 C   0  0  0  0  0  0  0  0  0  0  0  0
    1.0921    0.7973   -5.9732 C   0  0  0  0  0  0  0  0  0  0  0  0
    1.3489    0.7503   -4.5995 C   0  0  0  0  0  0  0  0  0  0  0  0
   -0.2057    0.3275   -1.2682 C   0  0  0  0  0  0  0  0  0  0  0  0
   -1.4070   -0.2887   -1.3837 N   0  0  0  0  0  0  0  0  0  0  0  0
    0.4734    0.0514    2.3770 N   0  0  0  0  0  0  0  0  0  0  0  0
    0.9550    1.3103    2.9240 C   0  0  0  0  0  0  0  0  0  0  0  0
    1.3749    1.0019    4.3545 C   0  0  0  0  0  0  0  0  0  0  0  0
    0.6465   -0.2952    4.7225 C   0  0  2  0  0  0  0  0  0  0  0  0
    1.4533   -1.1847    5.6781 C   0  0  0  0  0  0  0  0  0  0  0  0
    1.6526   -0.5172    6.8933 O   0  0  0  0  0  0  0  0  0  0  0  0
    0.3498   -0.9852    3.3895 C   0  0  0  0  0  0  0  0  0  0  0  0
   -3.4389   -2.2049    0.4549 H   0  0  0  0  0  0  0  0  0  0  0  0
   -3.4671   -1.9189   -1.3267 H   0  0  0  0  0  0  0  0  0  0  0  0
   -4.1211   -0.6621   -0.2007 H   0  0  0  0  0  0  0  0  0  0  0  0
    2.5011    1.1588    0.2850 H   0  0  0  0  0  0  0  0  0  0  0  0
   -1.8507    1.1077   -3.4681 H   0  0  0  0  0  0  0  0  0  0  0  0
   -2.2859    1.1642   -5.8862 H   0  0  0  0  0  0  0  0  0  0  0  0
   -0.4148    0.9775   -7.4999 H   0  0  0  0  0  0  0  0  0  0  0  0
    1.9096    0.7237   -6.6788 H   0  0  0  0  0  0  0  0  0  0  0  0
    2.3698    0.6356   -4.2580 H   0  0  0  0  0  0  0  0  0  0  0  0
    1.8193    1.6971    2.3504 H   0  0  0  0  0  0  0  0  0  0  0  0
    0.1331    2.0590    2.9148 H   0  0  0  0  0  0  0  0  0  0  0  0
    2.4780    0.8565    4.3853 H   0  0  0  0  0  0  0  0  0  0  0  0
    1.0993    1.8299    5.0433 H   0  0  0  0  0  0  0  0  0  0  0  0
   -0.3216   -0.0307    5.2059 H   0  0  0  0  0  0  0  0  0  0  0  0
    0.8888   -2.1264    5.8619 H   0  0  0  0  0  0  0  0  0  0  0  0
    2.4368   -1.4429    5.2235 H   0  0  0  0  0  0  0  0  0  0  0  0
    2.1774   -1.1362    7.4645 H   0  0  0  0  0  0  0  0  0  0  0  0
   -0.6781   -1.4091    3.4034 H   0  0  0  0  0  0  0  0  0  0  0  0
    1.0785   -1.7949    3.1664 H   0  0  0  0  0  0  0  0  0  0  0  0
  1  2  1  0
  2  3  2  0
  3  4  1  0
  4  5  2  0
  5  6  1  0
  6  7  2  0
  7  8  1  0
  8  9  1  0
  9 10  2  0
 10 11  1  0
 11 12  2  0
 12 13  1  0
 13 14  2  0
  8 15  1  0
 15 16  2  0
  4 17  1  0
 17 18  1  0
 18 19  1  0
 19 20  1  0
 20 21  1  0
 21 22  1  0
 20 23  1  0
  2 16  1  0
  5 15  1  0
  9 14  1  0
 23 17  1  0
  1 24  1  0
  1 25  1  0
  1 26  1  0
  6 27  1  0
 10 28  1  0
 11 29  1  0
 12 30  1  0
 13 31  1  0
 14 32  1  0
 18 33  1  0
 18 34  1  0
 19 35  1  0
 19 36  1  0
 20 37  1  1
 21 38  1  0
 21 39  1  0
 22 40  1  0
 23 41  1  0
 23 42  1  0
M  END
$$$$
