
     RDKit          3D

 37 40  0  0  0  0  0  0  0  0999 V2000
   -3.4740    0.6256   -1.8353 O   0  0  0  0  0  0  0  0  0  0  0  0
   -2.2324    0.4232   -1.8963 C   0  0  0  0  0  0  0  0  0  0  0  0
   -1.6532   -0.8717   -1.8128 N   0  0  0  0  0  0  0  0  0  0  0  0
   -0.2014   -0.7094   -1.8161 C   0  0  0  0  0  0  0  0  0  0  0  0
    0.4772   -1.5485   -2.9262 C   0  0  0  0  0  0  0  0  0  0  0  0
    1.4897   -2.4795   -2.2273 C   0  0  0  0  0  0  0  0  0  0  0  0
    1.3323   -2.1804   -0.7822 C   0  0  0  0  0  0  0  0  0  0  0  0
    2.0275   -2.7776    0.2726 C   0  0  0  0  0  0  0  0  0  0  0  0
    1.7535   -2.3615    1.5848 C   0  0  0  0  0  0  0  0  0  0  0  0
    0.7952   -1.3602    1.8237 C   0  0  0  0  0  0  0  0  0  0  0  0
    0.1080   -0.7731    0.7513 C   0  0  0  0  0  0  0  0  0  0  0  0
    0.3971   -1.2027   -0.5495 C   0  0  0  0  0  0  0  0  0  0  0  0
   -0.0259    0.7746   -1.9787 C   0  0  0  0  0  0  0  0  0  0  0  0
    1.0894    1.3568   -2.0488 O   0  0  0  0  0  0  0  0  0  0  0  0
   -1.2723    1.4649   -2.0126 N   0  0  0  0  0  0  0  0  0  0  0  0
   -1.4789    2.8445   -1.5755 C   0  0  0  0  0  0  0  0  0  0  0  0
   -1.4532    2.9159   -0.0706 C   0  0  0  0  0  0  0  0  0  0  0  0
   -2.5558    2.4968    0.6111 N   0  0  0  0  0  0  0  0  0  0  0  0
   -2.6005    2.4594    1.9684 C   0  0  0  0  0  0  0  0  0  0  0  0
   -1.4874    2.8480    2.7138 C   0  0  0  0  0  0  0  0  0  0  0  0
   -1.5295    2.7907    4.4662 Cl  0  0  0  0  0  0  0  0  0  0  0  0
   -0.3393    3.2805    2.0490 C   0  0  0  0  0  0  0  0  0  0  0  0
   -0.3084    3.3184    0.6514 C   0  0  0  0  0  0  0  0  0  0  0  0
    1.1625    3.8782   -0.1361 Cl  0  0  0  0  0  0  0  0  0  0  0  0
   -2.1748   -1.7658   -1.6721 H   0  0  0  0  0  0  0  0  0  0  0  0
    1.0025   -0.9037   -3.6649 H   0  0  0  0  0  0  0  0  0  0  0  0
   -0.2730   -2.1577   -3.4771 H   0  0  0  0  0  0  0  0  0  0  0  0
    2.5276   -2.2506   -2.5520 H   0  0  0  0  0  0  0  0  0  0  0  0
    1.2523   -3.5468   -2.4262 H   0  0  0  0  0  0  0  0  0  0  0  0
    2.7653   -3.5465    0.0828 H   0  0  0  0  0  0  0  0  0  0  0  0
    2.2821   -2.8116    2.4150 H   0  0  0  0  0  0  0  0  0  0  0  0
    0.5879   -1.0408    2.8367 H   0  0  0  0  0  0  0  0  0  0  0  0
   -0.6288   -0.0003    0.9289 H   0  0  0  0  0  0  0  0  0  0  0  0
   -2.4659    3.2014   -1.9403 H   0  0  0  0  0  0  0  0  0  0  0  0
   -0.7147    3.5033   -2.0364 H   0  0  0  0  0  0  0  0  0  0  0  0
   -3.4995    2.1192    2.4649 H   0  0  0  0  0  0  0  0  0  0  0  0
    0.5299    3.5850    2.6184 H   0  0  0  0  0  0  0  0  0  0  0  0
  1  2  2  0
  2  3  1  0
  3  4  1  0
  4  5  1  0
  5  6  1  0
  6  7  1  0
  7  8  2  0
  8  9  1  0
  9 10  2  0
 10 11  1  0
 11 12  2  0
  4 13  1  0
 13 14  2  0
 13 15  1  0
 15 16  1  0
 16 17  1  0
 17 18  2  0
 18 19  1  0
 19 20  2  0
 20 21  1  0
 20 22  1  0
 22 23  2  0
 23 24  1  0
 15  2  1  0
 12  4  1  0
  7 12  1  0
 17 23  1  0
  3 25  1  0
  5 26  1  0
  5 27  1  0
  6 28  1  0
  6 29  1  0
  8 30  1  0
  9 31  1  0
 10 32  1  0
 11 33  1  0
 16 34  1  0
 16 35  1  0
 19 36  1  0
 22 37  1  0
M  END
$$$$
