
     RDKit          3D

 46 48  0  0  0  0  0  0  0  0999 V2000
    2.1877   -0.0267   -2.9056 O   0  0  0  0  0  0  0  0  0  0  0  0
    1.1611   -0.2535   -2.2099 C   0  0  0  0  0  0  0  0  0  0  0  0
   -0.0927    0.3398   -2.5779 N   0  0  0  0  0  0  0  0  0  0  0  0
   -0.2226    1.1581   -3.7851 C   0  0  0  0  0  0  0  0  0  0  0  0
   -1.6466    1.7340   -3.9286 C   0  0  0  0  0  0  0  0  0  0  0  0
   -1.8415    2.3338   -5.3369 C   0  0  0  0  0  0  0  0  0  0  0  0
   -2.9622    3.3853   -5.3175 C   0  0  0  0  0  0  0  0  0  0  0  0
   -2.7151    4.4932   -4.4572 O   0  0  0  0  0  0  0  0  0  0  0  0
   -1.8322    4.2115   -3.3780 C   0  0  0  0  0  0  0  0  0  0  0  0
   -1.9621    2.7809   -2.8316 C   0  0  0  0  0  0  0  0  0  0  0  0
    1.2490   -1.1486   -1.0314 C   0  0  0  0  0  0  0  0  0  0  0  0
    0.2216   -2.0752   -0.8018 C   0  0  0  0  0  0  0  0  0  0  0  0
    0.2853   -2.9255    0.2524 N   0  0  0  0  0  0  0  0  0  0  0  0
    1.3305   -2.8954    1.1182 C   0  0  0  0  0  0  0  0  0  0  0  0
    2.3414   -2.0123    0.9167 N   0  0  0  0  0  0  0  0  0  0  0  0
    2.3338   -1.1296   -0.1195 C   0  0  0  0  0  0  0  0  0  0  0  0
    3.4903   -0.1689   -0.2418 C   0  0  0  0  0  0  0  0  0  0  0  0
    3.0292    1.1184   -0.4533 F   0  0  0  0  0  0  0  0  0  0  0  0
    4.3060   -0.5500   -1.2909 F   0  0  0  0  0  0  0  0  0  0  0  0
    4.2417   -0.1727    0.9208 F   0  0  0  0  0  0  0  0  0  0  0  0
    1.4074   -3.8206    2.2121 N   0  0  0  0  0  0  0  0  0  0  0  0
    0.3118   -4.6371    2.6594 C   0  0  0  0  0  0  0  0  0  0  0  0
   -1.0099   -4.1533    2.6638 C   0  0  0  0  0  0  0  0  0  0  0  0
   -2.0541   -4.9596    3.1280 C   0  0  0  0  0  0  0  0  0  0  0  0
   -1.7881   -6.2461    3.6038 C   0  0  0  0  0  0  0  0  0  0  0  0
   -0.4758   -6.7252    3.6251 C   0  0  0  0  0  0  0  0  0  0  0  0
    0.5711   -5.9217    3.1626 C   0  0  0  0  0  0  0  0  0  0  0  0
   -0.9204    0.1982   -1.9552 H   0  0  0  0  0  0  0  0  0  0  0  0
    0.5150    1.9901   -3.7509 H   0  0  0  0  0  0  0  0  0  0  0  0
    0.0093    0.5229   -4.6682 H   0  0  0  0  0  0  0  0  0  0  0  0
   -2.3683    0.8929   -3.8187 H   0  0  0  0  0  0  0  0  0  0  0  0
   -2.0975    1.5267   -6.0575 H   0  0  0  0  0  0  0  0  0  0  0  0
   -0.9073    2.8235   -5.6918 H   0  0  0  0  0  0  0  0  0  0  0  0
   -3.1006    3.7705   -6.3497 H   0  0  0  0  0  0  0  0  0  0  0  0
   -3.9180    2.9023   -5.0189 H   0  0  0  0  0  0  0  0  0  0  0  0
   -2.0515    4.9237   -2.5548 H   0  0  0  0  0  0  0  0  0  0  0  0
   -0.7845    4.3991   -3.6997 H   0  0  0  0  0  0  0  0  0  0  0  0
   -1.2973    2.6641   -1.9484 H   0  0  0  0  0  0  0  0  0  0  0  0
   -3.0061    2.6368   -2.4758 H   0  0  0  0  0  0  0  0  0  0  0  0
   -0.6220   -2.1434   -1.4765 H   0  0  0  0  0  0  0  0  0  0  0  0
    2.3421   -3.9639    2.6576 H   0  0  0  0  0  0  0  0  0  0  0  0
   -1.2331   -3.1473    2.3344 H   0  0  0  0  0  0  0  0  0  0  0  0
   -3.0689   -4.5832    3.1274 H   0  0  0  0  0  0  0  0  0  0  0  0
   -2.5973   -6.8680    3.9642 H   0  0  0  0  0  0  0  0  0  0  0  0
   -0.2691   -7.7184    4.0023 H   0  0  0  0  0  0  0  0  0  0  0  0
    1.5843   -6.3030    3.1861 H   0  0  0  0  0  0  0  0  0  0  0  0
  1  2  2  0
  2  3  1  0
  3  4  1  0
  4  5  1  0
  5  6  1  0
  6  7  1  0
  7  8  1  0
  8  9  1  0
  9 10  1  0
  2 11  1  0
 11 12  2  0
 12 13  1  0
 13 14  2  0
 14 15  1  0
 15 16  2  0
 16 17  1  0
 17 18  1  0
 17 19  1  0
 17 20  1  0
 14 21  1  0
 21 22  1  0
 22 23  2  0
 23 24  1  0
 24 25  2  0
 25 26  1  0
 26 27  2  0
 10  5  1  0
 11 16  1  0
 22 27  1  0
  3 28  1  0
  4 29  1  0
  4 30  1  0
  5 31  1  0
  6 32  1  0
  6 33  1  0
  7 34  1  0
  7 35  1  0
  9 36  1  0
  9 37  1  0
 10 38  1  0
 10 39  1  0
 12 40  1  0
 21 41  1  0
 23 42  1  0
 24 43  1  0
 25 44  1  0
 26 45  1  0
 27 46  1  0
M  END
$$$$
