
     RDKit          3D

 39 40  0  0  0  0  0  0  0  0999 V2000
   -4.6924    1.2333   -0.7753 C   0  0  0  0  0  0  0  0  0  0  0  0
   -3.3187    0.8651   -0.2065 C   0  0  0  0  0  0  0  0  0  0  0  0
   -3.3579   -0.2878    0.8342 C   0  0  0  0  0  0  0  0  0  0  0  0
   -3.7997   -1.6104    0.1646 C   0  0  0  0  0  0  0  0  0  0  0  0
   -4.2858    0.0580    1.8371 O   0  0  0  0  0  0  0  0  0  0  0  0
   -1.9599   -0.4527    1.4967 C   0  0  0  0  0  0  0  0  0  0  0  0
   -0.8672   -0.8079    0.5290 C   0  0  0  0  0  0  0  0  0  0  0  0
   -0.0307    0.0668   -0.1292 C   0  0  0  0  0  0  0  0  0  0  0  0
    0.7614   -0.6932   -0.9033 N   0  0  0  0  0  0  0  0  0  0  0  0
    1.8596   -0.2319   -1.7441 C   0  0  0  0  0  0  0  0  0  0  0  0
    3.1082   -0.0834   -0.9179 C   0  0  0  0  0  0  0  0  0  0  0  0
    3.3994    1.1419   -0.3007 C   0  0  0  0  0  0  0  0  0  0  0  0
    4.5430    1.2615    0.5019 C   0  0  0  0  0  0  0  0  0  0  0  0
    5.3517    0.1814    0.6849 N   0  0  0  0  0  0  0  0  0  0  0  0
    5.0859   -1.0210    0.1103 C   0  0  0  0  0  0  0  0  0  0  0  0
    3.9570   -1.1794   -0.6962 C   0  0  0  0  0  0  0  0  0  0  0  0
    3.6930   -2.3900   -1.2502 F   0  0  0  0  0  0  0  0  0  0  0  0
    4.8683    2.5663    1.1678 C   0  0  0  0  0  0  0  0  0  0  0  0
    6.0501    2.4674    1.8812 F   0  0  0  0  0  0  0  0  0  0  0  0
    3.8487    2.9106    2.0363 F   0  0  0  0  0  0  0  0  0  0  0  0
    5.0053    3.5558    0.2113 F   0  0  0  0  0  0  0  0  0  0  0  0
    0.4399   -1.9640   -0.7191 N   0  0  0  0  0  0  0  0  0  0  0  0
   -0.5592   -2.0642    0.1464 N   0  0  0  0  0  0  0  0  0  0  0  0
   -4.5870    2.1101   -1.4485 H   0  0  0  0  0  0  0  0  0  0  0  0
   -5.1115    0.3953   -1.3694 H   0  0  0  0  0  0  0  0  0  0  0  0
   -5.3988    1.5032    0.0374 H   0  0  0  0  0  0  0  0  0  0  0  0
   -2.8938    1.7749    0.2719 H   0  0  0  0  0  0  0  0  0  0  0  0
   -2.6555    0.5952   -1.0567 H   0  0  0  0  0  0  0  0  0  0  0  0
   -4.8738   -1.5690   -0.1123 H   0  0  0  0  0  0  0  0  0  0  0  0
   -3.2065   -1.8119   -0.7526 H   0  0  0  0  0  0  0  0  0  0  0  0
   -3.6682   -2.4638    0.8639 H   0  0  0  0  0  0  0  0  0  0  0  0
   -4.3344   -0.6928    2.4860 H   0  0  0  0  0  0  0  0  0  0  0  0
   -1.6853    0.4893    2.0202 H   0  0  0  0  0  0  0  0  0  0  0  0
   -2.0055   -1.2454    2.2751 H   0  0  0  0  0  0  0  0  0  0  0  0
    0.0033    1.1459   -0.0510 H   0  0  0  0  0  0  0  0  0  0  0  0
    1.5883    0.7386   -2.2148 H   0  0  0  0  0  0  0  0  0  0  0  0
    2.0266   -0.9545   -2.5721 H   0  0  0  0  0  0  0  0  0  0  0  0
    2.7427    1.9928   -0.4400 H   0  0  0  0  0  0  0  0  0  0  0  0
    5.7501   -1.8570    0.2847 H   0  0  0  0  0  0  0  0  0  0  0  0
  1  2  1  0
  2  3  1  0
  3  4  1  0
  3  5  1  0
  3  6  1  0
  6  7  1  0
  7  8  2  0
  8  9  1  0
  9 10  1  0
 10 11  1  0
 11 12  2  0
 12 13  1  0
 13 14  2  0
 14 15  1  0
 15 16  2  0
 16 17  1  0
 13 18  1  0
 18 19  1  0
 18 20  1  0
 18 21  1  0
  9 22  1  0
 22 23  2  0
 23  7  1  0
 16 11  1  0
  1 24  1  0
  1 25  1  0
  1 26  1  0
  2 27  1  0
  2 28  1  0
  4 29  1  0
  4 30  1  0
  4 31  1  0
  5 32  1  0
  6 33  1  0
  6 34  1  0
  8 35  1  0
 10 36  1  0
 10 37  1  0
 12 38  1  0
 15 39  1  0
M  END
$$$$
