
     RDKit          3D

 34 35  0  0  0  0  0  0  0  0999 V2000
   -0.4033   -0.0289    5.7086 N   0  0  0  0  0  0  0  0  0  0  0  0
   -0.2472    0.1899    4.3065 C   0  0  0  0  0  0  0  0  0  0  0  0
    1.0210    0.4088    3.7591 C   0  0  0  0  0  0  0  0  0  0  0  0
    1.1475    0.6198    2.3853 C   0  0  0  0  0  0  0  0  0  0  0  0
    0.0101    0.6201    1.5606 C   0  0  0  0  0  0  0  0  0  0  0  0
   -1.2424    0.3863    2.1550 C   0  0  0  0  0  0  0  0  0  0  0  0
   -1.3387    0.1807    3.4957 N   0  0  0  0  0  0  0  0  0  0  0  0
    0.1407    0.8362    0.0995 C   0  0  0  0  0  0  0  0  0  0  0  0
    1.2722    0.7213   -0.4471 O   0  0  0  0  0  0  0  0  0  0  0  0
   -0.9959    1.2090   -0.6967 N   0  0  0  0  0  0  0  0  0  0  0  0
   -1.0109    1.1026   -2.1293 C   0  0  0  0  0  0  0  0  0  0  0  0
   -1.4929    2.1808   -2.8854 C   0  0  0  0  0  0  0  0  0  0  0  0
   -1.5208    2.1129   -4.2787 C   0  0  0  0  0  0  0  0  0  0  0  0
   -1.0810    0.9602   -4.9310 C   0  0  0  0  0  0  0  0  0  0  0  0
   -1.1165    0.8788   -6.6832 Cl  0  0  0  0  0  0  0  0  0  0  0  0
   -0.6245   -0.1335   -4.1892 C   0  0  0  0  0  0  0  0  0  0  0  0
   -0.5942   -0.0797   -2.7800 C   0  0  0  0  0  0  0  0  0  0  0  0
   -0.1982   -1.1779   -1.9948 O   0  0  0  0  0  0  0  0  0  0  0  0
    0.3641   -2.4012   -2.4731 C   0  0  0  0  0  0  0  0  0  0  0  0
    1.8603   -2.2499   -2.7458 C   0  0  0  0  0  0  0  0  0  0  0  0
    2.5077   -1.8510   -1.5905 F   0  0  0  0  0  0  0  0  0  0  0  0
    2.0849   -1.3129   -3.7366 F   0  0  0  0  0  0  0  0  0  0  0  0
    2.3780   -3.4654   -3.1537 F   0  0  0  0  0  0  0  0  0  0  0  0
    0.4227   -0.0274    6.3479 H   0  0  0  0  0  0  0  0  0  0  0  0
   -1.3519   -0.1937    6.1125 H   0  0  0  0  0  0  0  0  0  0  0  0
    1.9011    0.4156    4.3899 H   0  0  0  0  0  0  0  0  0  0  0  0
    2.1331    0.7909    1.9703 H   0  0  0  0  0  0  0  0  0  0  0  0
   -2.1436    0.3467    1.5588 H   0  0  0  0  0  0  0  0  0  0  0  0
   -1.7633    1.7511   -0.2397 H   0  0  0  0  0  0  0  0  0  0  0  0
   -1.8328    3.0823   -2.3911 H   0  0  0  0  0  0  0  0  0  0  0  0
   -1.8838    2.9576   -4.8503 H   0  0  0  0  0  0  0  0  0  0  0  0
   -0.3104   -1.0178   -4.7235 H   0  0  0  0  0  0  0  0  0  0  0  0
   -0.1760   -2.7733   -3.3682 H   0  0  0  0  0  0  0  0  0  0  0  0
    0.2347   -3.1686   -1.6809 H   0  0  0  0  0  0  0  0  0  0  0  0
  1  2  1  0
  2  3  2  0
  3  4  1  0
  4  5  2  0
  5  6  1  0
  6  7  2  0
  5  8  1  0
  8  9  2  0
  8 10  1  0
 10 11  1  0
 11 12  2  0
 12 13  1  0
 13 14  2  0
 14 15  1  0
 14 16  1  0
 16 17  2  0
 17 18  1  0
 18 19  1  0
 19 20  1  0
 20 21  1  0
 20 22  1  0
 20 23  1  0
  2  7  1  0
 11 17  1  0
  1 24  1  0
  1 25  1  0
  3 26  1  0
  4 27  1  0
  6 28  1  0
 10 29  1  0
 12 30  1  0
 13 31  1  0
 16 32  1  0
 19 33  1  0
 19 34  1  0
M  END
$$$$
