
     RDKit          3D

 52 57  0  0  0  0  0  0  0  0999 V2000
   -3.0989    5.3768   -1.3786 C   0  0  0  0  0  0  0  0  0  0  0  0
   -2.0374    5.1178   -0.4130 N   0  0  0  0  0  0  0  0  0  0  0  0
   -1.2166    6.1123    0.2215 C   0  0  0  0  0  0  0  0  0  0  0  0
   -1.5128    7.3335    0.3045 O   0  0  0  0  0  0  0  0  0  0  0  0
    0.0189    5.4970    0.6975 C   0  0  0  0  0  0  0  0  0  0  0  0
    1.1573    5.9859    1.3337 C   0  0  0  0  0  0  0  0  0  0  0  0
    2.2155    5.0796    1.5716 C   0  0  0  0  0  0  0  0  0  0  0  0
    2.1199    3.7237    1.1618 C   0  0  0  0  0  0  0  0  0  0  0  0
    0.9494    3.2585    0.5150 C   0  0  0  0  0  0  0  0  0  0  0  0
    0.7235    1.9471    0.0163 C   0  0  0  0  0  0  0  0  0  0  0  0
   -0.4747    1.6813   -0.7074 C   0  0  0  0  0  0  0  0  0  0  0  0
   -1.4601    2.6761   -0.8909 C   0  0  0  0  0  0  0  0  0  0  0  0
   -1.2281    3.9370   -0.3439 C   0  0  0  0  0  0  0  0  0  0  0  0
   -0.0605    4.1901    0.3187 C   0  0  0  0  0  0  0  0  0  0  0  0
    1.9031    0.6455    0.2361 S   0  0  0  0  0  0  0  0  0  0  0  0
    2.4147    0.6460    1.6516 O   0  0  0  0  0  0  0  0  0  0  0  0
    3.0492    0.8784   -0.7086 O   0  0  0  0  0  0  0  0  0  0  0  0
    1.1569   -0.9038   -0.0949 N   0  0  0  0  0  0  0  0  0  0  0  0
    0.2388   -1.2820    0.9898 C   0  0  0  0  0  0  0  0  0  0  0  0
   -0.9732   -1.8388    0.3264 C   0  0  0  0  0  0  0  0  0  0  0  0
   -2.1950   -1.1478    0.4298 C   0  0  0  0  0  0  0  0  0  0  0  0
   -3.2868   -1.5201   -0.3515 C   0  0  0  0  0  0  0  0  0  0  0  0
   -3.1646   -2.5644   -1.2636 C   0  0  0  0  0  0  0  0  0  0  0  0
   -1.9608   -3.2632   -1.3705 C   0  0  0  0  0  0  0  0  0  0  0  0
   -0.8528   -2.9356   -0.5569 C   0  0  0  0  0  0  0  0  0  0  0  0
    0.3660   -3.8141   -0.5862 C   0  0  0  0  0  0  0  0  0  0  0  0
    0.1422   -5.2082   -0.6850 C   0  0  0  0  0  0  0  0  0  0  0  0
    1.1973   -6.1162   -0.7299 C   0  0  0  0  0  0  0  0  0  0  0  0
    2.5064   -5.6631   -0.6682 C   0  0  0  0  0  0  0  0  0  0  0  0
    2.7652   -4.3023   -0.5377 C   0  0  0  0  0  0  0  0  0  0  0  0
    1.7220   -3.3546   -0.4777 C   0  0  0  0  0  0  0  0  0  0  0  0
    2.2005   -1.9152   -0.3098 C   0  0  0  0  0  0  0  0  0  0  0  0
   -3.6641    6.2869   -1.0871 H   0  0  0  0  0  0  0  0  0  0  0  0
   -2.6577    5.5256   -2.3867 H   0  0  0  0  0  0  0  0  0  0  0  0
   -3.8015    4.5183   -1.4066 H   0  0  0  0  0  0  0  0  0  0  0  0
    1.2341    7.0260    1.6233 H   0  0  0  0  0  0  0  0  0  0  0  0
    3.1170    5.4287    2.0577 H   0  0  0  0  0  0  0  0  0  0  0  0
    2.9659    3.0726    1.3299 H   0  0  0  0  0  0  0  0  0  0  0  0
   -0.6434    0.7061   -1.1421 H   0  0  0  0  0  0  0  0  0  0  0  0
   -2.3649    2.4625   -1.4438 H   0  0  0  0  0  0  0  0  0  0  0  0
    0.6791   -2.0341    1.6834 H   0  0  0  0  0  0  0  0  0  0  0  0
   -0.0420   -0.4080    1.6202 H   0  0  0  0  0  0  0  0  0  0  0  0
   -2.2943   -0.2978    1.0933 H   0  0  0  0  0  0  0  0  0  0  0  0
   -4.2200   -0.9791   -0.2688 H   0  0  0  0  0  0  0  0  0  0  0  0
   -4.0053   -2.8376   -1.8884 H   0  0  0  0  0  0  0  0  0  0  0  0
   -1.8991   -4.0645   -2.0952 H   0  0  0  0  0  0  0  0  0  0  0  0
   -0.8629   -5.6110   -0.7094 H   0  0  0  0  0  0  0  0  0  0  0  0
    0.9955   -7.1766   -0.8133 H   0  0  0  0  0  0  0  0  0  0  0  0
    3.3254   -6.3685   -0.7129 H   0  0  0  0  0  0  0  0  0  0  0  0
    3.7994   -3.9812   -0.4808 H   0  0  0  0  0  0  0  0  0  0  0  0
    2.7650   -1.6497   -1.2314 H   0  0  0  0  0  0  0  0  0  0  0  0
    2.9204   -1.8872    0.5418 H   0  0  0  0  0  0  0  0  0  0  0  0
  1  2  1  0
  2  3  1  0
  3  4  2  0
  3  5  1  0
  5  6  2  0
  6  7  1  0
  7  8  2  0
  8  9  1  0
  9 10  2  0
 10 11  1  0
 11 12  2  0
 12 13  1  0
 13 14  2  0
 10 15  1  0
 15 16  2  0
 15 17  2  0
 15 18  1  0
 18 19  1  0
 19 20  1  0
 20 21  2  0
 21 22  1  0
 22 23  2  0
 23 24  1  0
 24 25  2  0
 25 26  1  0
 26 27  2  0
 27 28  1  0
 28 29  2  0
 29 30  1  0
 30 31  2  0
 31 32  1  0
 13  2  1  0
 14  5  1  0
 14  9  1  0
 32 18  1  0
 20 25  1  0
 26 31  1  0
  1 33  1  0
  1 34  1  0
  1 35  1  0
  6 36  1  0
  7 37  1  0
  8 38  1  0
 11 39  1  0
 12 40  1  0
 19 41  1  0
 19 42  1  0
 21 43  1  0
 22 44  1  0
 23 45  1  0
 24 46  1  0
 27 47  1  0
 28 48  1  0
 29 49  1  0
 30 50  1  0
 32 51  1  0
 32 52  1  0
M  END
$$$$
