
     RDKit          3D

 44 47  0  0  0  0  0  0  0  0999 V2000
   -1.2483   -0.4756   -2.2616 C   0  0  0  0  0  0  0  0  0  0  0  0
   -0.7336   -1.9120   -2.3364 C   0  0  0  0  0  0  0  0  0  0  0  0
   -0.9708   -2.6809   -1.0310 C   0  0  0  0  0  0  0  0  0  0  0  0
   -0.2149   -2.0896    0.0725 N   0  0  0  0  0  0  0  0  0  0  0  0
   -0.7336   -1.2227    0.9362 N   0  0  0  0  0  0  0  0  0  0  0  0
    0.2570   -0.8310    1.7721 C   0  0  0  0  0  0  0  0  0  0  0  0
    0.0948    0.1280    2.8244 N   0  0  0  0  0  0  0  0  0  0  0  0
   -1.1587    0.8482    3.0263 C   0  0  0  0  0  0  0  0  0  0  0  0
   -1.3302    1.8855    1.9640 C   0  0  0  0  0  0  0  0  0  0  0  0
   -1.8699    1.6433    0.7541 N   0  0  0  0  0  0  0  0  0  0  0  0
   -1.7676    2.8572    0.1748 C   0  0  0  0  0  0  0  0  0  0  0  0
   -2.1951    3.1431   -1.2279 C   0  0  0  0  0  0  0  0  0  0  0  0
   -0.9638    3.2793   -2.1304 C   0  0  0  0  0  0  0  0  0  0  0  0
   -1.2165    3.9990   -3.4458 C   0  0  0  0  0  0  0  0  0  0  0  0
   -0.4453    4.6949   -2.3345 C   0  0  0  0  0  0  0  0  0  0  0  0
   -1.1923    3.7714    0.9804 N   0  0  0  0  0  0  0  0  0  0  0  0
   -0.9361    3.1296    2.0791 O   0  0  0  0  0  0  0  0  0  0  0  0
    1.4302   -1.4643    1.4195 C   0  0  0  0  0  0  0  0  0  0  0  0
    2.7288   -1.4039    1.9207 C   0  0  0  0  0  0  0  0  0  0  0  0
    3.7086   -2.1866    1.2816 C   0  0  0  0  0  0  0  0  0  0  0  0
    3.3704   -2.9934    0.1705 C   0  0  0  0  0  0  0  0  0  0  0  0
    2.0486   -3.0268   -0.3133 C   0  0  0  0  0  0  0  0  0  0  0  0
    1.0979   -2.2436    0.3449 C   0  0  0  0  0  0  0  0  0  0  0  0
   -0.6750    0.1011   -1.5064 H   0  0  0  0  0  0  0  0  0  0  0  0
   -2.3263   -0.4619   -1.9946 H   0  0  0  0  0  0  0  0  0  0  0  0
   -1.1204    0.0172   -3.2483 H   0  0  0  0  0  0  0  0  0  0  0  0
   -1.2615   -2.4376   -3.1610 H   0  0  0  0  0  0  0  0  0  0  0  0
    0.3512   -1.9021   -2.5769 H   0  0  0  0  0  0  0  0  0  0  0  0
   -0.6654   -3.7405   -1.1668 H   0  0  0  0  0  0  0  0  0  0  0  0
   -2.0553   -2.6800   -0.7855 H   0  0  0  0  0  0  0  0  0  0  0  0
    0.8985    0.3327    3.4594 H   0  0  0  0  0  0  0  0  0  0  0  0
   -2.0139    0.1387    3.0145 H   0  0  0  0  0  0  0  0  0  0  0  0
   -1.1419    1.3482    4.0183 H   0  0  0  0  0  0  0  0  0  0  0  0
   -2.8184    2.3032   -1.6022 H   0  0  0  0  0  0  0  0  0  0  0  0
   -2.8235    4.0607   -1.2344 H   0  0  0  0  0  0  0  0  0  0  0  0
   -0.2036    2.4708   -2.1772 H   0  0  0  0  0  0  0  0  0  0  0  0
   -2.2427    4.3968   -3.5995 H   0  0  0  0  0  0  0  0  0  0  0  0
   -0.5793    3.6562   -4.2882 H   0  0  0  0  0  0  0  0  0  0  0  0
    0.6480    4.7604   -2.5171 H   0  0  0  0  0  0  0  0  0  0  0  0
   -1.0127    5.5038   -1.8264 H   0  0  0  0  0  0  0  0  0  0  0  0
    2.9808   -0.7782    2.7666 H   0  0  0  0  0  0  0  0  0  0  0  0
    4.7291   -2.1679    1.6412 H   0  0  0  0  0  0  0  0  0  0  0  0
    4.1341   -3.5878   -0.3138 H   0  0  0  0  0  0  0  0  0  0  0  0
    1.7878   -3.6384   -1.1666 H   0  0  0  0  0  0  0  0  0  0  0  0
  1  2  1  0
  2  3  1  0
  3  4  1  0
  4  5  1  0
  5  6  2  0
  6  7  1  0
  7  8  1  0
  8  9  1  0
  9 10  2  0
 10 11  1  0
 11 12  1  0
 12 13  1  0
 13 14  1  0
 14 15  1  0
 11 16  2  0
 16 17  1  0
  6 18  1  0
 18 19  2  0
 19 20  1  0
 20 21  2  0
 21 22  1  0
 22 23  2  0
 23  4  1  0
 17  9  1  0
 15 13  1  0
 18 23  1  0
  1 24  1  0
  1 25  1  0
  1 26  1  0
  2 27  1  0
  2 28  1  0
  3 29  1  0
  3 30  1  0
  7 31  1  0
  8 32  1  0
  8 33  1  0
 12 34  1  0
 12 35  1  0
 13 36  1  0
 14 37  1  0
 14 38  1  0
 15 39  1  0
 15 40  1  0
 19 41  1  0
 20 42  1  0
 21 43  1  0
 22 44  1  0
M  END
$$$$
