
     RDKit          3D

 55 60  0  0  0  0  0  0  0  0999 V2000
   -5.8797    1.8026   -5.4450 C   0  0  0  0  0  0  0  0  0  0  0  0
   -4.6250    2.5150   -5.8321 C   0  0  0  0  0  0  0  0  0  0  0  0
   -4.4776    3.4630   -6.8431 C   0  0  0  0  0  0  0  0  0  0  0  0
   -3.1868    3.8637   -6.9299 N   0  0  0  0  0  0  0  0  0  0  0  0
   -2.5291    3.1670   -5.9889 C   0  0  0  0  0  0  0  0  0  0  0  0
   -1.2069    3.2562   -5.7069 N   0  0  0  0  0  0  0  0  0  0  0  0
   -0.6844    2.4805   -4.7099 C   0  0  0  0  0  0  0  0  0  0  0  0
   -1.5074    1.5806   -3.9769 C   0  0  0  0  0  0  0  0  0  0  0  0
   -2.8872    1.5161   -4.2836 C   0  0  0  0  0  0  0  0  0  0  0  0
   -3.3630    2.3318   -5.3052 C   0  0  0  0  0  0  0  0  0  0  0  0
   -0.9195    0.7515   -2.8972 C   0  0  0  0  0  0  0  0  0  0  0  0
    0.1673    1.1110   -2.3659 O   0  0  0  0  0  0  0  0  0  0  0  0
   -1.5512   -0.4612   -2.4584 N   0  0  0  0  0  0  0  0  0  0  0  0
   -1.0706   -1.1774   -1.2814 C   0  0  1  0  0  0  0  0  0  0  0  0
   -1.2284   -2.6893   -1.3786 C   0  0  2  0  0  0  0  0  0  0  0  0
   -1.1867   -3.4482   -0.0607 C   0  0  0  0  0  0  0  0  0  0  0  0
    0.1418   -3.2352    0.4931 N   0  0  0  0  0  0  0  0  0  0  0  0
    0.9922   -2.4267   -0.3700 C   0  0  0  0  0  0  0  0  0  0  0  0
    0.1413   -2.0527   -1.5743 C   0  0  2  0  0  0  0  0  0  0  0  0
    0.6208   -3.9570    1.6426 C   0  0  0  0  0  0  0  0  0  0  0  0
   -0.0264   -4.9539    2.0652 O   0  0  0  0  0  0  0  0  0  0  0  0
    1.8673   -3.5735    2.3339 C   0  0  0  0  0  0  0  0  0  0  0  0
    2.8101   -4.5716    2.6905 C   0  0  0  0  0  0  0  0  0  0  0  0
    3.9949   -4.2311    3.3673 C   0  0  0  0  0  0  0  0  0  0  0  0
    4.2018   -2.8914    3.6807 C   0  0  0  0  0  0  0  0  0  0  0  0
    5.2424   -2.3619    4.3498 N   0  0  0  0  0  0  0  0  0  0  0  0
    4.9209   -1.0437    4.4064 C   0  0  0  0  0  0  0  0  0  0  0  0
    5.7419   -0.0861    5.0764 N   0  0  0  0  0  0  0  0  0  0  0  0
    3.7445   -0.7379    3.7983 N   0  0  0  0  0  0  0  0  0  0  0  0
    3.0851    0.5657    3.7321 C   0  0  0  0  0  0  0  0  0  0  0  0
    3.2934   -1.9246    3.3549 C   0  0  0  0  0  0  0  0  0  0  0  0
    2.1021   -2.2268    2.6911 C   0  0  0  0  0  0  0  0  0  0  0  0
   -5.8427    0.7590   -5.8189 H   0  0  0  0  0  0  0  0  0  0  0  0
   -5.9799    1.7928   -4.3397 H   0  0  0  0  0  0  0  0  0  0  0  0
   -6.7637    2.3149   -5.8803 H   0  0  0  0  0  0  0  0  0  0  0  0
   -5.2698    3.8369   -7.4783 H   0  0  0  0  0  0  0  0  0  0  0  0
   -2.7892    4.5681   -7.5900 H   0  0  0  0  0  0  0  0  0  0  0  0
    0.3718    2.5570   -4.4916 H   0  0  0  0  0  0  0  0  0  0  0  0
   -3.5723    0.8835   -3.7362 H   0  0  0  0  0  0  0  0  0  0  0  0
   -2.3790   -0.8412   -2.9684 H   0  0  0  0  0  0  0  0  0  0  0  0
   -1.1400   -0.6852   -0.2865 H   0  0  0  0  0  0  0  0  0  0  0  0
   -1.6459   -3.1437   -2.3031 H   0  0  0  0  0  0  0  0  0  0  0  0
   -1.9612   -3.0628    0.6368 H   0  0  0  0  0  0  0  0  0  0  0  0
   -1.3520   -4.5302   -0.2533 H   0  0  0  0  0  0  0  0  0  0  0  0
    1.3277   -1.5055    0.1481 H   0  0  0  0  0  0  0  0  0  0  0  0
    1.8712   -3.0202   -0.7007 H   0  0  0  0  0  0  0  0  0  0  0  0
    0.5295   -2.1202   -2.6133 H   0  0  0  0  0  0  0  0  0  0  0  0
    2.6281   -5.6088    2.4382 H   0  0  0  0  0  0  0  0  0  0  0  0
    4.7164   -4.9879    3.6439 H   0  0  0  0  0  0  0  0  0  0  0  0
    5.4568    0.9153    5.1517 H   0  0  0  0  0  0  0  0  0  0  0  0
    6.6341   -0.3879    5.5259 H   0  0  0  0  0  0  0  0  0  0  0  0
    2.6010    0.7882    4.7053 H   0  0  0  0  0  0  0  0  0  0  0  0
    2.3208    0.5843    2.9283 H   0  0  0  0  0  0  0  0  0  0  0  0
    3.8285    1.3559    3.4991 H   0  0  0  0  0  0  0  0  0  0  0  0
    1.3679   -1.4600    2.4835 H   0  0  0  0  0  0  0  0  0  0  0  0
  1  2  1  0
  2  3  2  0
  3  4  1  0
  4  5  1  0
  5  6  2  0
  6  7  1  0
  7  8  2  0
  8  9  1  0
  9 10  2  0
  8 11  1  0
 11 12  2  0
 11 13  1  0
 13 14  1  0
 14 15  1  0
 15 16  1  0
 16 17  1  0
 17 18  1  0
 18 19  1  0
 17 20  1  0
 20 21  2  0
 20 22  1  0
 22 23  2  0
 23 24  1  0
 24 25  2  0
 25 26  1  0
 26 27  2  0
 27 28  1  0
 27 29  1  0
 29 30  1  0
 29 31  1  0
 31 32  2  0
 10  2  1  0
  5 10  1  0
 19 14  1  0
 19 15  1  0
 22 32  1  0
 25 31  1  0
  1 33  1  0
  1 34  1  0
  1 35  1  0
  3 36  1  0
  4 37  1  0
  7 38  1  0
  9 39  1  0
 13 40  1  0
 14 41  1  1
 15 42  1  6
 16 43  1  0
 16 44  1  0
 18 45  1  0
 18 46  1  0
 19 47  1  6
 23 48  1  0
 24 49  1  0
 28 50  1  0
 28 51  1  0
 30 52  1  0
 30 53  1  0
 30 54  1  0
 32 55  1  0
M  END
$$$$
