
     RDKit          3D

 47 49  0  0  0  0  0  0  0  0999 V2000
   -4.5128    0.2894    1.0050 C   0  0  0  0  0  0  0  0  0  0  0  0
   -3.1886    0.4925    1.6796 C   0  0  0  0  0  0  0  0  0  0  0  0
   -2.2188   -0.5199    1.6519 C   0  0  0  0  0  0  0  0  0  0  0  0
   -0.9703   -0.3174    2.2466 C   0  0  0  0  0  0  0  0  0  0  0  0
   -0.6619    0.9110    2.8562 C   0  0  0  0  0  0  0  0  0  0  0  0
   -1.6378    1.9218    2.8841 C   0  0  0  0  0  0  0  0  0  0  0  0
   -2.8866    1.7183    2.2901 C   0  0  0  0  0  0  0  0  0  0  0  0
    0.6968    1.1406    3.4861 C   0  0  0  0  0  0  0  0  0  0  0  0
    1.7377    1.8112    2.5352 C   0  0  0  0  0  0  0  0  0  0  0  0
    1.2304    3.2041    2.0963 C   0  0  0  0  0  0  0  0  0  0  0  0
    3.0582    1.9719    3.3143 C   0  0  0  0  0  0  0  0  0  0  0  0
    1.9705    0.9493    1.3587 N   0  0  0  0  0  0  0  0  0  0  0  0
    2.7086    1.3343    0.1841 C   0  0  0  0  0  0  0  0  0  0  0  0
    3.4843    2.3266    0.2115 O   0  0  0  0  0  0  0  0  0  0  0  0
    2.5804    0.5672   -1.0664 C   0  0  0  0  0  0  0  0  0  0  0  0
    1.6766   -0.4460   -1.3263 C   0  0  0  0  0  0  0  0  0  0  0  0
    1.9570   -0.7979   -2.6288 C   0  0  0  0  0  0  0  0  0  0  0  0
    2.9369   -0.0465   -3.0738 O   0  0  0  0  0  0  0  0  0  0  0  0
    3.3361    0.7902   -2.1604 N   0  0  0  0  0  0  0  0  0  0  0  0
    1.2805   -1.8354   -3.4138 C   0  0  0  0  0  0  0  0  0  0  0  0
    1.5749   -2.1824   -4.7197 C   0  0  0  0  0  0  0  0  0  0  0  0
    0.6892   -3.1984   -5.0109 C   0  0  0  0  0  0  0  0  0  0  0  0
   -0.0823   -3.4130   -3.9286 N   0  0  0  0  0  0  0  0  0  0  0  0
   -1.0996   -4.4467   -3.7982 C   0  0  0  0  0  0  0  0  0  0  0  0
    0.2749   -2.6011   -2.9468 N   0  0  0  0  0  0  0  0  0  0  0  0
   -5.3049    0.8830    1.5093 H   0  0  0  0  0  0  0  0  0  0  0  0
   -4.4396    0.6098   -0.0552 H   0  0  0  0  0  0  0  0  0  0  0  0
   -4.8107   -0.7802    1.0406 H   0  0  0  0  0  0  0  0  0  0  0  0
   -2.4302   -1.4684    1.1736 H   0  0  0  0  0  0  0  0  0  0  0  0
   -0.2481   -1.1236    2.2344 H   0  0  0  0  0  0  0  0  0  0  0  0
   -1.4305    2.8711    3.3613 H   0  0  0  0  0  0  0  0  0  0  0  0
   -3.6182    2.5166    2.3080 H   0  0  0  0  0  0  0  0  0  0  0  0
    1.0989    0.1661    3.8427 H   0  0  0  0  0  0  0  0  0  0  0  0
    0.5662    1.7649    4.3982 H   0  0  0  0  0  0  0  0  0  0  0  0
    0.3930    3.1053    1.3737 H   0  0  0  0  0  0  0  0  0  0  0  0
    2.0314    3.7954    1.6074 H   0  0  0  0  0  0  0  0  0  0  0  0
    0.8828    3.7889    2.9749 H   0  0  0  0  0  0  0  0  0  0  0  0
    2.8977    2.5680    4.2386 H   0  0  0  0  0  0  0  0  0  0  0  0
    3.8280    2.4906    2.7070 H   0  0  0  0  0  0  0  0  0  0  0  0
    3.4595    0.9764    3.6020 H   0  0  0  0  0  0  0  0  0  0  0  0
    1.6095   -0.0282    1.3827 H   0  0  0  0  0  0  0  0  0  0  0  0
    0.9151   -0.8590   -0.6779 H   0  0  0  0  0  0  0  0  0  0  0  0
    2.3342   -1.7623   -5.3660 H   0  0  0  0  0  0  0  0  0  0  0  0
    0.6201   -3.7458   -5.9422 H   0  0  0  0  0  0  0  0  0  0  0  0
   -1.6567   -4.5558   -4.7529 H   0  0  0  0  0  0  0  0  0  0  0  0
   -0.6165   -5.4127   -3.5423 H   0  0  0  0  0  0  0  0  0  0  0  0
   -1.8178   -4.1744   -2.9960 H   0  0  0  0  0  0  0  0  0  0  0  0
  1  2  1  0
  2  3  2  0
  3  4  1  0
  4  5  2  0
  5  6  1  0
  6  7  2  0
  5  8  1  0
  8  9  1  0
  9 10  1  0
  9 11  1  0
  9 12  1  0
 12 13  1  0
 13 14  2  0
 13 15  1  0
 15 16  1  0
 16 17  2  0
 17 18  1  0
 18 19  1  0
 17 20  1  0
 20 21  1  0
 21 22  2  0
 22 23  1  0
 23 24  1  0
 23 25  1  0
  2  7  1  0
 15 19  2  0
 20 25  2  0
  1 26  1  0
  1 27  1  0
  1 28  1  0
  3 29  1  0
  4 30  1  0
  6 31  1  0
  7 32  1  0
  8 33  1  0
  8 34  1  0
 10 35  1  0
 10 36  1  0
 10 37  1  0
 11 38  1  0
 11 39  1  0
 11 40  1  0
 12 41  1  0
 16 42  1  0
 21 43  1  0
 22 44  1  0
 24 45  1  0
 24 46  1  0
 24 47  1  0
M  END
$$$$
