
     RDKit          3D

 46 48  0  0  0  0  0  0  0  0999 V2000
    2.4060    0.2295   -1.0323 O   0  0  0  0  0  0  0  0  0  0  0  0
    1.3068    0.6713   -0.6007 C   0  0  0  0  0  0  0  0  0  0  0  0
    0.3126    1.1539   -1.5151 N   0  0  0  0  0  0  0  0  0  0  0  0
    0.5568    1.2832   -2.9511 C   0  0  0  0  0  0  0  0  0  0  0  0
    0.5108   -0.0930   -3.6568 C   0  0  0  0  0  0  0  0  0  0  0  0
   -0.8501   -0.7933   -3.4731 C   0  0  0  0  0  0  0  0  0  0  0  0
   -1.9668   -0.1075   -4.2963 C   0  0  0  0  0  0  0  0  0  0  0  0
   -1.4784    0.7692   -5.3003 O   0  0  0  0  0  0  0  0  0  0  0  0
   -0.4349    0.1535   -6.0264 C   0  0  0  0  0  0  0  0  0  0  0  0
    0.8360    0.0371   -5.1645 C   0  0  0  0  0  0  0  0  0  0  0  0
    1.0398    0.6436    0.8497 C   0  0  0  0  0  0  0  0  0  0  0  0
    1.1364   -0.5769    1.5283 C   0  0  0  0  0  0  0  0  0  0  0  0
    0.8688   -0.6456    2.8559 N   0  0  0  0  0  0  0  0  0  0  0  0
    0.5043    0.4591    3.5574 C   0  0  0  0  0  0  0  0  0  0  0  0
    0.4428    1.6616    2.9292 N   0  0  0  0  0  0  0  0  0  0  0  0
    0.7095    1.7966    1.6012 C   0  0  0  0  0  0  0  0  0  0  0  0
    0.6392    3.1797    1.0003 C   0  0  0  0  0  0  0  0  0  0  0  0
    0.7674    4.1338    1.9948 F   0  0  0  0  0  0  0  0  0  0  0  0
   -0.5816    3.3585    0.3786 F   0  0  0  0  0  0  0  0  0  0  0  0
    1.6584    3.3750    0.0854 F   0  0  0  0  0  0  0  0  0  0  0  0
    0.2452    0.3837    4.9665 N   0  0  0  0  0  0  0  0  0  0  0  0
    0.0588   -0.8446    5.6900 C   0  0  0  0  0  0  0  0  0  0  0  0
   -0.6202   -1.9371    5.1186 C   0  0  0  0  0  0  0  0  0  0  0  0
   -0.8100   -3.1116    5.8536 C   0  0  0  0  0  0  0  0  0  0  0  0
   -0.3385   -3.2014    7.1657 C   0  0  0  0  0  0  0  0  0  0  0  0
    0.3155   -2.1131    7.7487 C   0  0  0  0  0  0  0  0  0  0  0  0
    0.5066   -0.9367    7.0173 C   0  0  0  0  0  0  0  0  0  0  0  0
   -0.6292    1.4185   -1.1502 H   0  0  0  0  0  0  0  0  0  0  0  0
   -0.2058    1.9630   -3.3872 H   0  0  0  0  0  0  0  0  0  0  0  0
    1.5478    1.7621   -3.1092 H   0  0  0  0  0  0  0  0  0  0  0  0
    1.2923   -0.7359   -3.1961 H   0  0  0  0  0  0  0  0  0  0  0  0
   -0.7488   -1.8449   -3.8217 H   0  0  0  0  0  0  0  0  0  0  0  0
   -1.1352   -0.8415   -2.4001 H   0  0  0  0  0  0  0  0  0  0  0  0
   -2.5965    0.4903   -3.6037 H   0  0  0  0  0  0  0  0  0  0  0  0
   -2.6306   -0.8738   -4.7544 H   0  0  0  0  0  0  0  0  0  0  0  0
   -0.2115    0.7707   -6.9222 H   0  0  0  0  0  0  0  0  0  0  0  0
   -0.7477   -0.8499   -6.3990 H   0  0  0  0  0  0  0  0  0  0  0  0
    1.4944    0.9143   -5.3488 H   0  0  0  0  0  0  0  0  0  0  0  0
    1.4014   -0.8613   -5.4964 H   0  0  0  0  0  0  0  0  0  0  0  0
    1.4083   -1.4808    0.9976 H   0  0  0  0  0  0  0  0  0  0  0  0
    0.2719    1.2762    5.5101 H   0  0  0  0  0  0  0  0  0  0  0  0
   -1.0256   -1.8756    4.1175 H   0  0  0  0  0  0  0  0  0  0  0  0
   -1.3313   -3.9494    5.4086 H   0  0  0  0  0  0  0  0  0  0  0  0
   -0.4879   -4.1107    7.7336 H   0  0  0  0  0  0  0  0  0  0  0  0
    0.6726   -2.1800    8.7682 H   0  0  0  0  0  0  0  0  0  0  0  0
    1.0129   -0.0990    7.4805 H   0  0  0  0  0  0  0  0  0  0  0  0
  1  2  2  0
  2  3  1  0
  3  4  1  0
  4  5  1  0
  5  6  1  0
  6  7  1  0
  7  8  1  0
  8  9  1  0
  9 10  1  0
  2 11  1  0
 11 12  2  0
 12 13  1  0
 13 14  2  0
 14 15  1  0
 15 16  2  0
 16 17  1  0
 17 18  1  0
 17 19  1  0
 17 20  1  0
 14 21  1  0
 21 22  1  0
 22 23  2  0
 23 24  1  0
 24 25  2  0
 25 26  1  0
 26 27  2  0
 10  5  1  0
 11 16  1  0
 22 27  1  0
  3 28  1  0
  4 29  1  0
  4 30  1  0
  5 31  1  0
  6 32  1  0
  6 33  1  0
  7 34  1  0
  7 35  1  0
  9 36  1  0
  9 37  1  0
 10 38  1  0
 10 39  1  0
 12 40  1  0
 21 41  1  0
 23 42  1  0
 24 43  1  0
 25 44  1  0
 26 45  1  0
 27 46  1  0
M  END
$$$$
