
     RDKit          3D

 39 40  0  0  0  0  0  0  0  0999 V2000
   -2.7117   -1.5714    4.2600 C   0  0  0  0  0  0  0  0  0  0  0  0
   -1.2335   -1.1675    4.2302 C   0  0  0  0  0  0  0  0  0  0  0  0
   -0.4919   -1.4589    2.8915 C   0  0  0  0  0  0  0  0  0  0  0  0
   -0.4427   -2.9780    2.6082 C   0  0  0  0  0  0  0  0  0  0  0  0
    0.8252   -0.9684    3.0011 O   0  0  0  0  0  0  0  0  0  0  0  0
   -1.1821   -0.7148    1.7181 C   0  0  0  0  0  0  0  0  0  0  0  0
   -0.4002   -0.7990    0.4392 C   0  0  0  0  0  0  0  0  0  0  0  0
    0.6531    0.0041    0.0594 C   0  0  0  0  0  0  0  0  0  0  0  0
    1.0573   -0.4595   -1.1351 N   0  0  0  0  0  0  0  0  0  0  0  0
    2.1091    0.0983   -1.9767 C   0  0  0  0  0  0  0  0  0  0  0  0
    1.6161    1.3486   -2.6537 C   0  0  0  0  0  0  0  0  0  0  0  0
    1.9249    2.6087   -2.1190 C   0  0  0  0  0  0  0  0  0  0  0  0
    1.4311    3.7659   -2.7381 C   0  0  0  0  0  0  0  0  0  0  0  0
    0.6449    3.6529   -3.8436 N   0  0  0  0  0  0  0  0  0  0  0  0
    0.3188    2.4451   -4.3744 C   0  0  0  0  0  0  0  0  0  0  0  0
    0.7936    1.2702   -3.7884 C   0  0  0  0  0  0  0  0  0  0  0  0
    0.4493    0.0695   -4.3187 F   0  0  0  0  0  0  0  0  0  0  0  0
    1.7567    5.1213   -2.1826 C   0  0  0  0  0  0  0  0  0  0  0  0
    1.2610    5.2272   -0.8963 F   0  0  0  0  0  0  0  0  0  0  0  0
    3.1289    5.2959   -2.1579 F   0  0  0  0  0  0  0  0  0  0  0  0
    1.1928    6.1152   -2.9627 F   0  0  0  0  0  0  0  0  0  0  0  0
    0.2917   -1.4855   -1.4719 N   0  0  0  0  0  0  0  0  0  0  0  0
   -0.6036   -1.7218   -0.5233 N   0  0  0  0  0  0  0  0  0  0  0  0
   -2.8409   -2.6485    4.0317 H   0  0  0  0  0  0  0  0  0  0  0  0
   -3.1192   -1.3861    5.2768 H   0  0  0  0  0  0  0  0  0  0  0  0
   -3.3044   -0.9632    3.5462 H   0  0  0  0  0  0  0  0  0  0  0  0
   -0.7158   -1.6969    5.0600 H   0  0  0  0  0  0  0  0  0  0  0  0
   -1.1677   -0.0798    4.4533 H   0  0  0  0  0  0  0  0  0  0  0  0
    0.2700   -3.1944    1.7840 H   0  0  0  0  0  0  0  0  0  0  0  0
   -0.0993   -3.5335    3.5067 H   0  0  0  0  0  0  0  0  0  0  0  0
   -1.4397   -3.3632    2.3101 H   0  0  0  0  0  0  0  0  0  0  0  0
    1.2765   -1.4484    3.7456 H   0  0  0  0  0  0  0  0  0  0  0  0
   -2.1927   -1.1374    1.5315 H   0  0  0  0  0  0  0  0  0  0  0  0
   -1.3087    0.3575    1.9806 H   0  0  0  0  0  0  0  0  0  0  0  0
    1.0779    0.8457    0.5912 H   0  0  0  0  0  0  0  0  0  0  0  0
    2.4187   -0.6493   -2.7391 H   0  0  0  0  0  0  0  0  0  0  0  0
    3.0040    0.3162   -1.3544 H   0  0  0  0  0  0  0  0  0  0  0  0
    2.5403    2.6892   -1.2303 H   0  0  0  0  0  0  0  0  0  0  0  0
   -0.3133    2.3976   -5.2509 H   0  0  0  0  0  0  0  0  0  0  0  0
  1  2  1  0
  2  3  1  0
  3  4  1  0
  3  5  1  0
  3  6  1  0
  6  7  1  0
  7  8  2  0
  8  9  1  0
  9 10  1  0
 10 11  1  0
 11 12  2  0
 12 13  1  0
 13 14  2  0
 14 15  1  0
 15 16  2  0
 16 17  1  0
 13 18  1  0
 18 19  1  0
 18 20  1  0
 18 21  1  0
  9 22  1  0
 22 23  2  0
 23  7  1  0
 16 11  1  0
  1 24  1  0
  1 25  1  0
  1 26  1  0
  2 27  1  0
  2 28  1  0
  4 29  1  0
  4 30  1  0
  4 31  1  0
  5 32  1  0
  6 33  1  0
  6 34  1  0
  8 35  1  0
 10 36  1  0
 10 37  1  0
 12 38  1  0
 15 39  1  0
M  END
$$$$
