
     RDKit          3D

 43 46  0  0  0  0  0  0  0  0999 V2000
   -3.6998   -5.1806   -0.5367 C   0  0  0  0  0  0  0  0  0  0  0  0
   -2.7773   -5.0706   -1.7630 C   0  0  0  0  0  0  0  0  0  0  0  0
   -1.2741   -5.2493   -1.4534 C   0  0  0  0  0  0  0  0  0  0  0  0
   -0.8191   -4.2821   -0.4576 N   0  0  0  0  0  0  0  0  0  0  0  0
   -0.3967   -3.0268   -0.6848 C   0  0  0  0  0  0  0  0  0  0  0  0
   -0.1123   -2.4906    0.5549 C   0  0  0  0  0  0  0  0  0  0  0  0
   -0.3724   -3.4275    1.4903 N   0  0  0  0  0  0  0  0  0  0  0  0
   -0.8014   -4.5038    0.8471 N   0  0  0  0  0  0  0  0  0  0  0  0
    0.3784   -1.1365    0.8599 C   0  0  0  0  0  0  0  0  0  0  0  0
    0.5492   -0.8052    2.0645 O   0  0  0  0  0  0  0  0  0  0  0  0
    0.6599   -0.1961   -0.1864 N   0  0  0  0  0  0  0  0  0  0  0  0
    1.1542    1.1450    0.1105 C   0  0  2  0  0  0  0  0  0  0  0  0
    0.0580    2.0846    0.6057 C   0  0  0  0  0  0  0  0  0  0  0  0
    0.5989    2.2223   -0.8143 C   0  0  1  0  0  0  0  0  0  0  0  0
    1.4857    3.4234   -1.0913 C   0  0  0  0  0  0  0  0  0  0  0  0
    2.4277    3.9302   -0.1680 C   0  0  0  0  0  0  0  0  0  0  0  0
    3.2125    5.0405   -0.4946 C   0  0  0  0  0  0  0  0  0  0  0  0
    3.0717    5.6588   -1.7381 C   0  0  0  0  0  0  0  0  0  0  0  0
    2.1445    5.1686   -2.6596 C   0  0  0  0  0  0  0  0  0  0  0  0
    2.0080    5.7696   -3.8673 F   0  0  0  0  0  0  0  0  0  0  0  0
    1.3567    4.0587   -2.3386 C   0  0  0  0  0  0  0  0  0  0  0  0
   -3.2497   -5.8961   -2.9476 C   0  0  0  0  0  0  0  0  0  0  0  0
   -3.5305   -4.7524   -3.7200 O   0  0  0  0  0  0  0  0  0  0  0  0
   -3.1045   -3.9044   -2.6791 C   0  0  0  0  0  0  0  0  0  0  0  0
   -3.4953   -4.3505    0.1713 H   0  0  0  0  0  0  0  0  0  0  0  0
   -4.7705   -5.1235   -0.8305 H   0  0  0  0  0  0  0  0  0  0  0  0
   -3.5270   -6.1479   -0.0192 H   0  0  0  0  0  0  0  0  0  0  0  0
   -1.1026   -6.2782   -1.0688 H   0  0  0  0  0  0  0  0  0  0  0  0
   -0.6652   -5.1395   -2.3786 H   0  0  0  0  0  0  0  0  0  0  0  0
   -0.3110   -2.5600   -1.6564 H   0  0  0  0  0  0  0  0  0  0  0  0
    0.6117   -0.4948   -1.1854 H   0  0  0  0  0  0  0  0  0  0  0  0
    2.1541    1.2470    0.5805 H   0  0  0  0  0  0  0  0  0  0  0  0
    0.3971    2.8411    1.3427 H   0  0  0  0  0  0  0  0  0  0  0  0
   -0.9567    1.6353    0.6613 H   0  0  0  0  0  0  0  0  0  0  0  0
   -0.1032    1.8725   -1.6030 H   0  0  0  0  0  0  0  0  0  0  0  0
    2.5638    3.4813    0.8054 H   0  0  0  0  0  0  0  0  0  0  0  0
    3.9312    5.4224    0.2190 H   0  0  0  0  0  0  0  0  0  0  0  0
    3.6815    6.5180   -1.9864 H   0  0  0  0  0  0  0  0  0  0  0  0
    0.6432    3.6931   -3.0670 H   0  0  0  0  0  0  0  0  0  0  0  0
   -2.4521   -6.5077   -3.4255 H   0  0  0  0  0  0  0  0  0  0  0  0
   -4.1762   -6.4829   -2.7588 H   0  0  0  0  0  0  0  0  0  0  0  0
   -3.9420   -3.2654   -2.3207 H   0  0  0  0  0  0  0  0  0  0  0  0
   -2.2214   -3.3098   -2.9986 H   0  0  0  0  0  0  0  0  0  0  0  0
  1  2  1  0
  2  3  1  0
  3  4  1  0
  4  5  1  0
  5  6  2  0
  6  7  1  0
  7  8  2  0
  6  9  1  0
  9 10  2  0
  9 11  1  0
 11 12  1  0
 12 13  1  0
 13 14  1  0
 14 15  1  0
 15 16  2  0
 16 17  1  0
 17 18  2  0
 18 19  1  0
 19 20  1  0
 19 21  2  0
  2 22  1  0
 22 23  1  0
 23 24  1  0
 24  2  1  0
  8  4  1  0
 14 12  1  0
 15 21  1  0
  1 25  1  0
  1 26  1  0
  1 27  1  0
  3 28  1  0
  3 29  1  0
  5 30  1  0
 11 31  1  0
 12 32  1  1
 13 33  1  0
 13 34  1  0
 14 35  1  6
 16 36  1  0
 17 37  1  0
 18 38  1  0
 21 39  1  0
 22 40  1  0
 22 41  1  0
 24 42  1  0
 24 43  1  0
M  END
$$$$
