
     RDKit          3D

 53 56  0  0  0  0  0  0  0  0999 V2000
   -4.5941   -2.2038   -1.3953 C   0  0  0  0  0  0  0  0  0  0  0  0
   -4.7383   -2.3246   -0.0111 C   0  0  0  0  0  0  0  0  0  0  0  0
   -4.1179   -1.4066    0.8421 C   0  0  0  0  0  0  0  0  0  0  0  0
   -3.3463   -0.3557    0.3144 C   0  0  0  0  0  0  0  0  0  0  0  0
   -3.2099   -0.2416   -1.0814 C   0  0  0  0  0  0  0  0  0  0  0  0
   -3.8306   -1.1634   -1.9296 C   0  0  0  0  0  0  0  0  0  0  0  0
   -2.6733    0.6061    1.2128 C   0  0  0  0  0  0  0  0  0  0  0  0
   -2.7408    0.5552    2.5584 N   0  0  0  0  0  0  0  0  0  0  0  0
   -2.0026    1.5406    2.9691 O   0  0  0  0  0  0  0  0  0  0  0  0
   -1.4975    2.1747    1.9395 C   0  0  0  0  0  0  0  0  0  0  0  0
   -1.8958    1.6196    0.7776 N   0  0  0  0  0  0  0  0  0  0  0  0
   -0.5731    3.3627    2.0582 C   0  0  0  0  0  0  0  0  0  0  0  0
   -0.3528    4.0770    0.7113 C   0  0  0  0  0  0  0  0  0  0  0  0
    0.5514    3.2789   -0.2575 C   0  0  0  0  0  0  0  0  0  0  0  0
    1.1251    2.0674    0.3736 N   0  0  0  0  0  0  0  0  0  0  0  0
    2.0516    1.3704   -0.5498 C   0  0  0  0  0  0  0  0  0  0  0  0
    1.2911    0.3152   -1.3811 C   0  0  0  0  0  0  0  0  0  0  0  0
    2.1745   -0.2704   -2.5131 C   0  0  0  0  0  0  0  0  0  0  0  0
    3.3853   -1.1132   -2.0635 C   0  0  0  0  0  0  0  0  0  0  0  0
    3.1594   -2.0413   -0.8569 C   0  0  0  0  0  0  0  0  0  0  0  0
    1.8542   -2.8659   -0.8913 C   0  0  0  0  0  0  0  0  0  0  0  0
    0.6305   -2.0802   -1.1411 N   0  0  0  0  0  0  0  0  0  0  0  0
    0.6318   -0.7664   -0.4810 C   0  0  0  0  0  0  0  0  0  0  0  0
    1.7916    2.4185    1.6421 C   0  0  0  0  0  0  0  0  0  0  0  0
    0.7803    2.9555    2.6777 C   0  0  0  0  0  0  0  0  0  0  0  0
   -5.0736   -2.9166   -2.0537 H   0  0  0  0  0  0  0  0  0  0  0  0
   -5.3296   -3.1317    0.4017 H   0  0  0  0  0  0  0  0  0  0  0  0
   -4.2390   -1.5211    1.9119 H   0  0  0  0  0  0  0  0  0  0  0  0
   -2.6189    0.5548   -1.5167 H   0  0  0  0  0  0  0  0  0  0  0  0
   -3.7183   -1.0714   -3.0022 H   0  0  0  0  0  0  0  0  0  0  0  0
   -1.0663    4.0817    2.7488 H   0  0  0  0  0  0  0  0  0  0  0  0
   -1.3326    4.2936    0.2309 H   0  0  0  0  0  0  0  0  0  0  0  0
    0.1245    5.0613    0.9148 H   0  0  0  0  0  0  0  0  0  0  0  0
   -0.0584    2.9813   -1.1373 H   0  0  0  0  0  0  0  0  0  0  0  0
    1.3602    3.9508   -0.6256 H   0  0  0  0  0  0  0  0  0  0  0  0
    2.5628    2.0913   -1.2277 H   0  0  0  0  0  0  0  0  0  0  0  0
    2.8638    0.8542    0.0062 H   0  0  0  0  0  0  0  0  0  0  0  0
    0.4644    0.8420   -1.9072 H   0  0  0  0  0  0  0  0  0  0  0  0
    2.5461    0.5625   -3.1495 H   0  0  0  0  0  0  0  0  0  0  0  0
    1.5387   -0.8885   -3.1844 H   0  0  0  0  0  0  0  0  0  0  0  0
    4.2244   -0.4270   -1.8165 H   0  0  0  0  0  0  0  0  0  0  0  0
    3.7193   -1.7278   -2.9277 H   0  0  0  0  0  0  0  0  0  0  0  0
    3.2161   -1.4565    0.0837 H   0  0  0  0  0  0  0  0  0  0  0  0
    4.0125   -2.7523   -0.8070 H   0  0  0  0  0  0  0  0  0  0  0  0
    1.9429   -3.6334   -1.6898 H   0  0  0  0  0  0  0  0  0  0  0  0
    1.7595   -3.4067    0.0771 H   0  0  0  0  0  0  0  0  0  0  0  0
   -0.1835   -2.6320   -0.7809 H   0  0  0  0  0  0  0  0  0  0  0  0
   -0.4177   -0.4595   -0.2924 H   0  0  0  0  0  0  0  0  0  0  0  0
    1.0994   -0.8265    0.5271 H   0  0  0  0  0  0  0  0  0  0  0  0
    2.2800    1.5199    2.0809 H   0  0  0  0  0  0  0  0  0  0  0  0
    2.5866    3.1777    1.4598 H   0  0  0  0  0  0  0  0  0  0  0  0
    1.2270    3.8449    3.1743 H   0  0  0  0  0  0  0  0  0  0  0  0
    0.6197    2.1986    3.4774 H   0  0  0  0  0  0  0  0  0  0  0  0
  1  2  2  0
  2  3  1  0
  3  4  2  0
  4  5  1  0
  5  6  2  0
  4  7  1  0
  7  8  2  0
  8  9  1  0
  9 10  1  0
 10 11  2  0
 10 12  1  0
 12 13  1  0
 13 14  1  0
 14 15  1  0
 15 16  1  0
 16 17  1  0
 17 18  1  0
 18 19  1  0
 19 20  1  0
 20 21  1  0
 21 22  1  0
 22 23  1  0
 15 24  1  0
 24 25  1  0
  1  6  1  0
 11  7  1  0
 25 12  1  0
 23 17  1  0
  1 26  1  0
  2 27  1  0
  3 28  1  0
  5 29  1  0
  6 30  1  0
 12 31  1  0
 13 32  1  0
 13 33  1  0
 14 34  1  0
 14 35  1  0
 16 36  1  0
 16 37  1  0
 17 38  1  0
 18 39  1  0
 18 40  1  0
 19 41  1  0
 19 42  1  0
 20 43  1  0
 20 44  1  0
 21 45  1  0
 21 46  1  0
 22 47  1  0
 23 48  1  0
 23 49  1  0
 24 50  1  0
 24 51  1  0
 25 52  1  0
 25 53  1  0
M  END
$$$$
