
     RDKit          3D

 47 50  0  0  0  0  0  0  0  0999 V2000
    3.0545   -5.3602    1.4972 C   0  0  0  0  0  0  0  0  0  0  0  0
    3.1226   -4.2927    0.4449 C   0  0  0  0  0  0  0  0  0  0  0  0
    3.9945   -4.4327   -0.6436 C   0  0  0  0  0  0  0  0  0  0  0  0
    4.0289   -3.4660   -1.6504 C   0  0  0  0  0  0  0  0  0  0  0  0
    4.8789   -3.6203   -2.6971 F   0  0  0  0  0  0  0  0  0  0  0  0
    3.1857   -2.3507   -1.5845 C   0  0  0  0  0  0  0  0  0  0  0  0
    3.2166   -1.4241   -2.5790 N   0  0  0  0  0  0  0  0  0  0  0  0
    2.4139   -0.3298   -2.5705 C   0  0  0  0  0  0  0  0  0  0  0  0
    2.4910    0.5838   -3.6184 O   0  0  0  0  0  0  0  0  0  0  0  0
    1.5217   -0.1278   -1.5138 C   0  0  0  0  0  0  0  0  0  0  0  0
    1.4528   -1.0571   -0.4666 C   0  0  0  0  0  0  0  0  0  0  0  0
    0.5203   -0.7896    0.6482 C   0  0  0  0  0  0  0  0  0  0  0  0
    0.9819   -0.6400    1.8119 O   0  0  0  0  0  0  0  0  0  0  0  0
   -0.8935   -0.6674    0.4196 N   0  0  0  0  0  0  0  0  0  0  0  0
   -1.8034   -0.1212    1.4128 C   0  0  0  0  0  0  0  0  0  0  0  0
   -3.1869   -0.1171    0.7700 C   0  0  0  0  0  0  0  0  0  0  0  0
   -3.0537   -0.9048   -0.5413 C   0  0  0  0  0  0  0  0  0  0  0  0
   -1.5635   -1.1608   -0.7724 C   0  0  0  0  0  0  0  0  0  0  0  0
   -3.6998   -0.2284   -1.6776 N   0  0  0  0  0  0  0  0  0  0  0  0
   -3.3446    1.0491   -2.2565 C   0  0  0  0  0  0  0  0  0  0  0  0
   -4.0531    1.4991   -3.3851 C   0  0  0  0  0  0  0  0  0  0  0  0
   -3.7407    2.7229   -3.9842 C   0  0  0  0  0  0  0  0  0  0  0  0
   -2.7162    3.5151   -3.4642 C   0  0  0  0  0  0  0  0  0  0  0  0
   -2.0043    3.0853   -2.3434 C   0  0  0  0  0  0  0  0  0  0  0  0
   -2.3141    1.8630   -1.7392 C   0  0  0  0  0  0  0  0  0  0  0  0
    2.2957   -2.1936   -0.4936 C   0  0  0  0  0  0  0  0  0  0  0  0
    2.2628   -3.1854    0.5082 C   0  0  0  0  0  0  0  0  0  0  0  0
    2.7894   -4.9213    2.4827 H   0  0  0  0  0  0  0  0  0  0  0  0
    4.0349   -5.8718    1.6031 H   0  0  0  0  0  0  0  0  0  0  0  0
    2.2845   -6.1081    1.2147 H   0  0  0  0  0  0  0  0  0  0  0  0
    4.6456   -5.2954   -0.7148 H   0  0  0  0  0  0  0  0  0  0  0  0
    1.9055    1.4105   -3.6445 H   0  0  0  0  0  0  0  0  0  0  0  0
    0.8940    0.7558   -1.5032 H   0  0  0  0  0  0  0  0  0  0  0  0
   -1.4963    0.9122    1.6841 H   0  0  0  0  0  0  0  0  0  0  0  0
   -1.7970   -0.7639    2.3199 H   0  0  0  0  0  0  0  0  0  0  0  0
   -3.5247    0.9263    0.5925 H   0  0  0  0  0  0  0  0  0  0  0  0
   -3.9278   -0.6019    1.4431 H   0  0  0  0  0  0  0  0  0  0  0  0
   -3.5478   -1.8925   -0.3928 H   0  0  0  0  0  0  0  0  0  0  0  0
   -1.1866   -0.6403   -1.6761 H   0  0  0  0  0  0  0  0  0  0  0  0
   -1.3689   -2.2497   -0.8866 H   0  0  0  0  0  0  0  0  0  0  0  0
   -4.4902   -0.7498   -2.1214 H   0  0  0  0  0  0  0  0  0  0  0  0
   -4.8497    0.8977   -3.8048 H   0  0  0  0  0  0  0  0  0  0  0  0
   -4.2932    3.0562   -4.8532 H   0  0  0  0  0  0  0  0  0  0  0  0
   -2.4742    4.4619   -3.9294 H   0  0  0  0  0  0  0  0  0  0  0  0
   -1.2100    3.7005   -1.9405 H   0  0  0  0  0  0  0  0  0  0  0  0
   -1.7402    1.5717   -0.8756 H   0  0  0  0  0  0  0  0  0  0  0  0
    1.5685   -3.1139    1.3354 H   0  0  0  0  0  0  0  0  0  0  0  0
  1  2  1  0
  2  3  2  0
  3  4  1  0
  4  5  1  0
  4  6  2  0
  6  7  1  0
  7  8  2  0
  8  9  1  0
  8 10  1  0
 10 11  2  0
 11 12  1  0
 12 13  2  0
 12 14  1  0
 14 15  1  0
 15 16  1  0
 16 17  1  0
 17 18  1  0
 17 19  1  0
 19 20  1  0
 20 21  2  0
 21 22  1  0
 22 23  2  0
 23 24  1  0
 24 25  2  0
 11 26  1  0
 26 27  2  0
  2 27  1  0
  6 26  1  0
 18 14  1  0
 20 25  1  0
  1 28  1  0
  1 29  1  0
  1 30  1  0
  3 31  1  0
  9 32  1  0
 10 33  1  0
 15 34  1  0
 15 35  1  0
 16 36  1  0
 16 37  1  0
 17 38  1  0
 18 39  1  0
 18 40  1  0
 19 41  1  0
 21 42  1  0
 22 43  1  0
 23 44  1  0
 24 45  1  0
 25 46  1  0
 27 47  1  0
M  END
$$$$
