
     RDKit          3D

 45 47  0  0  0  0  0  0  0  0999 V2000
   -5.4474    1.6361    2.0171 C   0  0  0  0  0  0  0  0  0  0  0  0
   -4.6419    1.9673    0.8324 N   0  0  0  0  0  0  0  0  0  0  0  0
   -4.4512    0.8043   -0.0512 C   0  0  0  0  0  0  0  0  0  0  0  0
   -2.9630    0.6934   -0.3693 C   0  0  0  0  0  0  0  0  0  0  0  0
   -2.3609    2.0281    0.0701 C   0  0  0  0  0  0  0  0  0  0  0  0
   -2.4348    3.0617   -1.0790 C   0  0  0  0  0  0  0  0  0  0  0  0
   -0.9037    1.8822    0.5825 C   0  0  0  0  0  0  0  0  0  0  0  0
    0.0080    1.4729   -0.4883 N   0  0  0  0  0  0  0  0  0  0  0  0
    0.3833    0.1087   -0.7233 C   0  0  0  0  0  0  0  0  0  0  0  0
    0.0114   -0.7965    0.0722 O   0  0  0  0  0  0  0  0  0  0  0  0
    1.1556   -0.2212   -1.8877 N   0  0  0  0  0  0  0  0  0  0  0  0
    1.7472   -1.5099   -2.1260 C   0  0  0  0  0  0  0  0  0  0  0  0
    1.8527   -1.9853   -3.4408 C   0  0  0  0  0  0  0  0  0  0  0  0
    2.4424   -3.2253   -3.7027 C   0  0  0  0  0  0  0  0  0  0  0  0
    2.9521   -4.0056   -2.6519 C   0  0  0  0  0  0  0  0  0  0  0  0
    2.8687   -3.5197   -1.3373 C   0  0  0  0  0  0  0  0  0  0  0  0
    2.2778   -2.2798   -1.0763 C   0  0  0  0  0  0  0  0  0  0  0  0
    3.5768   -5.3168   -2.9209 C   0  0  0  0  0  0  0  0  0  0  0  0
    3.6995   -5.8524   -4.1550 N   0  0  0  0  0  0  0  0  0  0  0  0
    4.3146   -7.0278   -3.9261 C   0  0  0  0  0  0  0  0  0  0  0  0
    4.5415   -7.1638   -2.5764 C   0  0  0  0  0  0  0  0  0  0  0  0
    4.0756   -6.0933   -1.9842 O   0  0  0  0  0  0  0  0  0  0  0  0
   -3.3033    2.4456    1.2028 C   0  0  0  0  0  0  0  0  0  0  0  0
   -5.5560    2.5337    2.6630 H   0  0  0  0  0  0  0  0  0  0  0  0
   -4.9812    0.8166    2.6088 H   0  0  0  0  0  0  0  0  0  0  0  0
   -6.4651    1.3205    1.7023 H   0  0  0  0  0  0  0  0  0  0  0  0
   -4.8146   -0.1492    0.3974 H   0  0  0  0  0  0  0  0  0  0  0  0
   -5.0191    0.9783   -0.9902 H   0  0  0  0  0  0  0  0  0  0  0  0
   -2.5407   -0.1427    0.2302 H   0  0  0  0  0  0  0  0  0  0  0  0
   -2.7881    0.4770   -1.4464 H   0  0  0  0  0  0  0  0  0  0  0  0
   -3.4870    3.2344   -1.3927 H   0  0  0  0  0  0  0  0  0  0  0  0
   -1.8712    2.7077   -1.9680 H   0  0  0  0  0  0  0  0  0  0  0  0
   -2.0052    4.0338   -0.7547 H   0  0  0  0  0  0  0  0  0  0  0  0
   -0.5596    2.8598    0.9853 H   0  0  0  0  0  0  0  0  0  0  0  0
   -0.8529    1.1596    1.4264 H   0  0  0  0  0  0  0  0  0  0  0  0
    0.3705    2.2086   -1.1355 H   0  0  0  0  0  0  0  0  0  0  0  0
    1.2091    0.4922   -2.6496 H   0  0  0  0  0  0  0  0  0  0  0  0
    1.4669   -1.3969   -4.2640 H   0  0  0  0  0  0  0  0  0  0  0  0
    2.5006   -3.5714   -4.7271 H   0  0  0  0  0  0  0  0  0  0  0  0
    3.2684   -4.0945   -0.5110 H   0  0  0  0  0  0  0  0  0  0  0  0
    2.2609   -1.9149   -0.0582 H   0  0  0  0  0  0  0  0  0  0  0  0
    4.5802   -7.7398   -4.6958 H   0  0  0  0  0  0  0  0  0  0  0  0
    5.0171   -7.9967   -2.0762 H   0  0  0  0  0  0  0  0  0  0  0  0
   -3.3190    3.5490    1.3402 H   0  0  0  0  0  0  0  0  0  0  0  0
   -2.9668    1.9867    2.1627 H   0  0  0  0  0  0  0  0  0  0  0  0
  1  2  1  0
  2  3  1  0
  3  4  1  0
  4  5  1  0
  5  6  1  0
  5  7  1  0
  7  8  1  0
  8  9  1  0
  9 10  2  0
  9 11  1  0
 11 12  1  0
 12 13  2  0
 13 14  1  0
 14 15  2  0
 15 16  1  0
 16 17  2  0
 15 18  1  0
 18 19  2  0
 19 20  1  0
 20 21  2  0
 21 22  1  0
  5 23  1  0
 23  2  1  0
 12 17  1  0
 22 18  1  0
  1 24  1  0
  1 25  1  0
  1 26  1  0
  3 27  1  0
  3 28  1  0
  4 29  1  0
  4 30  1  0
  6 31  1  0
  6 32  1  0
  6 33  1  0
  7 34  1  0
  7 35  1  0
  8 36  1  0
 11 37  1  0
 13 38  1  0
 14 39  1  0
 16 40  1  0
 17 41  1  0
 20 42  1  0
 21 43  1  0
 23 44  1  0
 23 45  1  0
M  END
$$$$
