
     RDKit          3D

 46 48  0  0  0  0  0  0  0  0999 V2000
   -2.4380    1.1761    0.5007 O   0  0  0  0  0  0  0  0  0  0  0  0
   -1.5526    0.2781    0.5167 C   0  0  0  0  0  0  0  0  0  0  0  0
   -1.4837   -0.6449    1.6140 N   0  0  0  0  0  0  0  0  0  0  0  0
   -2.4276   -0.6224    2.7352 C   0  0  0  0  0  0  0  0  0  0  0  0
   -1.9345    0.2456    3.9121 C   0  0  0  0  0  0  0  0  0  0  0  0
   -1.8774    1.7439    3.5747 C   0  0  0  0  0  0  0  0  0  0  0  0
   -1.4029    2.5638    4.7984 C   0  0  0  0  0  0  0  0  0  0  0  0
   -0.8491    1.7652    5.8338 O   0  0  0  0  0  0  0  0  0  0  0  0
    0.1062    0.8687    5.3017 C   0  0  0  0  0  0  0  0  0  0  0  0
   -0.5792   -0.2349    4.4754 C   0  0  0  0  0  0  0  0  0  0  0  0
   -0.6558    0.1344   -0.6506 C   0  0  0  0  0  0  0  0  0  0  0  0
   -1.2309    0.0780   -1.9272 C   0  0  0  0  0  0  0  0  0  0  0  0
   -0.4530   -0.0881   -3.0250 N   0  0  0  0  0  0  0  0  0  0  0  0
    0.8974   -0.1825   -2.9214 C   0  0  0  0  0  0  0  0  0  0  0  0
    1.4811   -0.1180   -1.6974 N   0  0  0  0  0  0  0  0  0  0  0  0
    0.7566    0.0572   -0.5582 C   0  0  0  0  0  0  0  0  0  0  0  0
    1.5115    0.1610    0.7441 C   0  0  0  0  0  0  0  0  0  0  0  0
    2.8239    0.5271    0.5006 F   0  0  0  0  0  0  0  0  0  0  0  0
    1.5140   -1.0631    1.3842 F   0  0  0  0  0  0  0  0  0  0  0  0
    0.9495    1.1178    1.5674 F   0  0  0  0  0  0  0  0  0  0  0  0
    1.7122   -0.3962   -4.0828 N   0  0  0  0  0  0  0  0  0  0  0  0
    1.2456   -0.2558   -5.4353 C   0  0  0  0  0  0  0  0  0  0  0  0
    1.7590   -1.1005   -6.4321 C   0  0  0  0  0  0  0  0  0  0  0  0
    1.3378   -0.9672   -7.7588 C   0  0  0  0  0  0  0  0  0  0  0  0
    0.4124    0.0212   -8.1036 C   0  0  0  0  0  0  0  0  0  0  0  0
   -0.0862    0.8832   -7.1236 C   0  0  0  0  0  0  0  0  0  0  0  0
    0.3321    0.7526   -5.7954 C   0  0  0  0  0  0  0  0  0  0  0  0
   -0.8902   -1.4968    1.5054 H   0  0  0  0  0  0  0  0  0  0  0  0
   -3.4270   -0.2758    2.3929 H   0  0  0  0  0  0  0  0  0  0  0  0
   -2.5647   -1.6621    3.1052 H   0  0  0  0  0  0  0  0  0  0  0  0
   -2.6893    0.1307    4.7235 H   0  0  0  0  0  0  0  0  0  0  0  0
   -2.8785    2.1002    3.2469 H   0  0  0  0  0  0  0  0  0  0  0  0
   -1.1645    1.9142    2.7425 H   0  0  0  0  0  0  0  0  0  0  0  0
   -0.6682    3.3373    4.4818 H   0  0  0  0  0  0  0  0  0  0  0  0
   -2.2753    3.1063    5.2205 H   0  0  0  0  0  0  0  0  0  0  0  0
    0.8576    1.4101    4.6806 H   0  0  0  0  0  0  0  0  0  0  0  0
    0.6637    0.4018    6.1410 H   0  0  0  0  0  0  0  0  0  0  0  0
   -0.7530   -1.1271    5.1161 H   0  0  0  0  0  0  0  0  0  0  0  0
    0.1106   -0.5390    3.6607 H   0  0  0  0  0  0  0  0  0  0  0  0
   -2.3049    0.1421   -2.0495 H   0  0  0  0  0  0  0  0  0  0  0  0
    2.6826   -0.7543   -3.9316 H   0  0  0  0  0  0  0  0  0  0  0  0
    2.4783   -1.8687   -6.1773 H   0  0  0  0  0  0  0  0  0  0  0  0
    1.7306   -1.6289   -8.5199 H   0  0  0  0  0  0  0  0  0  0  0  0
    0.0888    0.1249   -9.1312 H   0  0  0  0  0  0  0  0  0  0  0  0
   -0.7903    1.6593   -7.3946 H   0  0  0  0  0  0  0  0  0  0  0  0
   -0.0380    1.4538   -5.0595 H   0  0  0  0  0  0  0  0  0  0  0  0
  1  2  2  0
  2  3  1  0
  3  4  1  0
  4  5  1  0
  5  6  1  0
  6  7  1  0
  7  8  1  0
  8  9  1  0
  9 10  1  0
  2 11  1  0
 11 12  2  0
 12 13  1  0
 13 14  2  0
 14 15  1  0
 15 16  2  0
 16 17  1  0
 17 18  1  0
 17 19  1  0
 17 20  1  0
 14 21  1  0
 21 22  1  0
 22 23  2  0
 23 24  1  0
 24 25  2  0
 25 26  1  0
 26 27  2  0
 10  5  1  0
 11 16  1  0
 22 27  1  0
  3 28  1  0
  4 29  1  0
  4 30  1  0
  5 31  1  0
  6 32  1  0
  6 33  1  0
  7 34  1  0
  7 35  1  0
  9 36  1  0
  9 37  1  0
 10 38  1  0
 10 39  1  0
 12 40  1  0
 21 41  1  0
 23 42  1  0
 24 43  1  0
 25 44  1  0
 26 45  1  0
 27 46  1  0
M  END
$$$$
