
     RDKit          3D

 47 50  0  0  0  0  0  0  0  0999 V2000
   -3.0858    0.0691    1.8797 C   0  0  0  0  0  0  0  0  0  0  0  0
   -2.8497    0.1940    0.4038 C   0  0  0  0  0  0  0  0  0  0  0  0
   -3.7682   -0.3563   -0.5006 C   0  0  0  0  0  0  0  0  0  0  0  0
   -3.5470   -0.2658   -1.8760 C   0  0  0  0  0  0  0  0  0  0  0  0
   -4.4581   -0.7872   -2.7361 F   0  0  0  0  0  0  0  0  0  0  0  0
   -2.3936    0.3593   -2.3632 C   0  0  0  0  0  0  0  0  0  0  0  0
   -2.1967    0.4587   -3.7048 N   0  0  0  0  0  0  0  0  0  0  0  0
   -1.0970    1.0604   -4.2284 C   0  0  0  0  0  0  0  0  0  0  0  0
   -0.9386    1.1443   -5.6077 O   0  0  0  0  0  0  0  0  0  0  0  0
   -0.1226    1.5925   -3.3837 C   0  0  0  0  0  0  0  0  0  0  0  0
   -0.2751    1.4987   -1.9944 C   0  0  0  0  0  0  0  0  0  0  0  0
    0.7981    2.0380   -1.1368 C   0  0  0  0  0  0  0  0  0  0  0  0
    0.9760    3.2853   -1.0955 O   0  0  0  0  0  0  0  0  0  0  0  0
    1.6628    1.1649   -0.3893 N   0  0  0  0  0  0  0  0  0  0  0  0
    2.7251    1.6632    0.4696 C   0  0  0  0  0  0  0  0  0  0  0  0
    3.4364    0.4358    1.0329 C   0  0  0  0  0  0  0  0  0  0  0  0
    2.8408   -0.7786    0.3055 C   0  0  0  0  0  0  0  0  0  0  0  0
    1.6504   -0.2832   -0.5158 C   0  0  0  0  0  0  0  0  0  0  0  0
    2.4847   -1.8757    1.2197 N   0  0  0  0  0  0  0  0  0  0  0  0
    1.5234   -1.8426    2.3003 C   0  0  0  0  0  0  0  0  0  0  0  0
    0.7931   -0.6837    2.6382 C   0  0  0  0  0  0  0  0  0  0  0  0
   -0.1086   -0.6999    3.7065 C   0  0  0  0  0  0  0  0  0  0  0  0
   -0.3077   -1.8700    4.4403 C   0  0  0  0  0  0  0  0  0  0  0  0
    0.4009   -3.0264    4.1119 C   0  0  0  0  0  0  0  0  0  0  0  0
    1.3117   -3.0127    3.0515 C   0  0  0  0  0  0  0  0  0  0  0  0
   -1.4363    0.8888   -1.4636 C   0  0  0  0  0  0  0  0  0  0  0  0
   -1.6812    0.8049   -0.0778 C   0  0  0  0  0  0  0  0  0  0  0  0
   -2.5958    0.9011    2.4286 H   0  0  0  0  0  0  0  0  0  0  0  0
   -4.1727    0.1048    2.1057 H   0  0  0  0  0  0  0  0  0  0  0  0
   -2.6743   -0.8973    2.2379 H   0  0  0  0  0  0  0  0  0  0  0  0
   -4.6618   -0.8500   -0.1387 H   0  0  0  0  0  0  0  0  0  0  0  0
   -1.6360    0.7620   -6.2352 H   0  0  0  0  0  0  0  0  0  0  0  0
    0.7567    2.0615   -3.8094 H   0  0  0  0  0  0  0  0  0  0  0  0
    3.4315    2.2805   -0.1272 H   0  0  0  0  0  0  0  0  0  0  0  0
    2.2943    2.2773    1.2900 H   0  0  0  0  0  0  0  0  0  0  0  0
    4.5301    0.5037    0.8423 H   0  0  0  0  0  0  0  0  0  0  0  0
    3.2918    0.3756    2.1325 H   0  0  0  0  0  0  0  0  0  0  0  0
    3.6103   -1.1532   -0.4083 H   0  0  0  0  0  0  0  0  0  0  0  0
    1.7722   -0.5693   -1.5836 H   0  0  0  0  0  0  0  0  0  0  0  0
    0.6887   -0.6944   -0.1469 H   0  0  0  0  0  0  0  0  0  0  0  0
    2.9864   -2.7785    1.0557 H   0  0  0  0  0  0  0  0  0  0  0  0
    0.9086    0.2380    2.0938 H   0  0  0  0  0  0  0  0  0  0  0  0
   -0.6564    0.1972    3.9642 H   0  0  0  0  0  0  0  0  0  0  0  0
   -1.0105   -1.8803    5.2634 H   0  0  0  0  0  0  0  0  0  0  0  0
    0.2473   -3.9342    4.6812 H   0  0  0  0  0  0  0  0  0  0  0  0
    1.8557   -3.9187    2.8153 H   0  0  0  0  0  0  0  0  0  0  0  0
   -0.9738    1.2142    0.6323 H   0  0  0  0  0  0  0  0  0  0  0  0
  1  2  1  0
  2  3  2  0
  3  4  1  0
  4  5  1  0
  4  6  2  0
  6  7  1  0
  7  8  2  0
  8  9  1  0
  8 10  1  0
 10 11  2  0
 11 12  1  0
 12 13  2  0
 12 14  1  0
 14 15  1  0
 15 16  1  0
 16 17  1  0
 17 18  1  0
 17 19  1  0
 19 20  1  0
 20 21  2  0
 21 22  1  0
 22 23  2  0
 23 24  1  0
 24 25  2  0
 11 26  1  0
 26 27  2  0
  2 27  1  0
  6 26  1  0
 18 14  1  0
 20 25  1  0
  1 28  1  0
  1 29  1  0
  1 30  1  0
  3 31  1  0
  9 32  1  0
 10 33  1  0
 15 34  1  0
 15 35  1  0
 16 36  1  0
 16 37  1  0
 17 38  1  0
 18 39  1  0
 18 40  1  0
 19 41  1  0
 21 42  1  0
 22 43  1  0
 23 44  1  0
 24 45  1  0
 25 46  1  0
 27 47  1  0
M  END
$$$$
