
     RDKit          3D

 45 49  0  0  0  0  0  0  0  0999 V2000
   -2.8006   -2.0164    3.1915 O   0  0  0  0  0  0  0  0  0  0  0  0
   -2.3904   -1.5959    1.9191 C   0  0  0  0  0  0  0  0  0  0  0  0
   -2.7376   -2.6675    0.8717 C   0  0  0  0  0  0  0  0  0  0  0  0
   -2.3076   -2.3136   -0.5699 C   0  0  0  0  0  0  0  0  0  0  0  0
   -0.7639   -2.2171   -0.7503 C   0  0  0  0  0  0  0  0  0  0  0  0
   -0.4945   -0.8344   -1.1446 N   0  0  0  0  0  0  0  0  0  0  0  0
    0.8353   -0.3088   -1.4493 C   0  0  0  0  0  0  0  0  0  0  0  0
    1.3515    0.5462   -0.2916 C   0  0  0  0  0  0  0  0  0  0  0  0
    1.6883   -0.1250    1.0323 C   0  0  0  0  0  0  0  0  0  0  0  0
    2.5030    1.1492    1.1196 C   0  0  0  0  0  0  0  0  0  0  0  0
    2.7688    1.0939   -0.3709 C   0  0  0  0  0  0  0  0  0  0  0  0
    1.3766    2.1695    1.1378 C   0  0  0  0  0  0  0  0  0  0  0  0
    0.5694    1.6693    0.0776 O   0  0  0  0  0  0  0  0  0  0  0  0
    3.6399    1.2509    2.0848 C   0  0  0  0  0  0  0  0  0  0  0  0
    4.7573    1.9713    1.8661 N   0  0  0  0  0  0  0  0  0  0  0  0
    5.4600    1.8492    2.9805 N   0  0  0  0  0  0  0  0  0  0  0  0
    4.7888    1.0974    3.8359 N   0  0  0  0  0  0  0  0  0  0  0  0
    3.6373    0.7089    3.3169 N   0  0  0  0  0  0  0  0  0  0  0  0
   -1.7287   -0.1555   -1.3152 C   0  0  0  0  0  0  0  0  0  0  0  0
   -1.9213    1.1515   -1.7758 C   0  0  0  0  0  0  0  0  0  0  0  0
   -3.2359    1.6283   -1.9014 C   0  0  0  0  0  0  0  0  0  0  0  0
   -4.3258    0.7969   -1.5802 C   0  0  0  0  0  0  0  0  0  0  0  0
   -4.1056   -0.5153   -1.1324 C   0  0  0  0  0  0  0  0  0  0  0  0
   -2.7889   -0.9646   -1.0043 C   0  0  0  0  0  0  0  0  0  0  0  0
   -2.1351   -2.6867    3.4975 H   0  0  0  0  0  0  0  0  0  0  0  0
   -1.3002   -1.3807    1.9238 H   0  0  0  0  0  0  0  0  0  0  0  0
   -2.9209   -0.6503    1.6810 H   0  0  0  0  0  0  0  0  0  0  0  0
   -2.2586   -3.6286    1.1595 H   0  0  0  0  0  0  0  0  0  0  0  0
   -3.8372   -2.8318    0.8852 H   0  0  0  0  0  0  0  0  0  0  0  0
   -2.7127   -3.0818   -1.2649 H   0  0  0  0  0  0  0  0  0  0  0  0
   -0.2043   -2.4671    0.1759 H   0  0  0  0  0  0  0  0  0  0  0  0
   -0.4333   -2.9023   -1.5608 H   0  0  0  0  0  0  0  0  0  0  0  0
    0.8026    0.2919   -2.3826 H   0  0  0  0  0  0  0  0  0  0  0  0
    1.5397   -1.1521   -1.6185 H   0  0  0  0  0  0  0  0  0  0  0  0
    2.3035   -1.0501    0.9294 H   0  0  0  0  0  0  0  0  0  0  0  0
    0.8403   -0.2239    1.7489 H   0  0  0  0  0  0  0  0  0  0  0  0
    3.5334    0.3365   -0.6654 H   0  0  0  0  0  0  0  0  0  0  0  0
    2.8743    2.0709   -0.8990 H   0  0  0  0  0  0  0  0  0  0  0  0
    1.7346    3.1989    0.9115 H   0  0  0  0  0  0  0  0  0  0  0  0
    0.8158    2.1638    2.0993 H   0  0  0  0  0  0  0  0  0  0  0  0
    5.1201    0.8503    4.7942 H   0  0  0  0  0  0  0  0  0  0  0  0
   -1.0856    1.7862   -2.0370 H   0  0  0  0  0  0  0  0  0  0  0  0
   -3.4122    2.6367   -2.2525 H   0  0  0  0  0  0  0  0  0  0  0  0
   -5.3369    1.1687   -1.6838 H   0  0  0  0  0  0  0  0  0  0  0  0
   -4.9383   -1.1630   -0.8914 H   0  0  0  0  0  0  0  0  0  0  0  0
  1  2  1  0
  2  3  1  0
  3  4  1  0
  4  5  1  0
  5  6  1  0
  6  7  1  0
  7  8  1  0
  8  9  1  0
  9 10  1  0
 10 11  1  0
 10 12  1  0
 12 13  1  0
 10 14  1  0
 14 15  1  0
 15 16  2  0
 16 17  1  0
 17 18  1  0
  6 19  1  0
 19 20  2  0
 20 21  1  0
 21 22  2  0
 22 23  1  0
 23 24  2  0
 24  4  1  0
 11  8  1  0
 13  8  1  0
 14 18  2  0
 19 24  1  0
  1 25  1  0
  2 26  1  0
  2 27  1  0
  3 28  1  0
  3 29  1  0
  4 30  1  0
  5 31  1  0
  5 32  1  0
  7 33  1  0
  7 34  1  0
  9 35  1  0
  9 36  1  0
 11 37  1  0
 11 38  1  0
 12 39  1  0
 12 40  1  0
 17 41  1  0
 20 42  1  0
 21 43  1  0
 22 44  1  0
 23 45  1  0
M  END
$$$$
