
     RDKit          3D

 42 45  0  0  0  0  0  0  0  0999 V2000
   -3.2018   -0.4661    0.1402 O   0  0  0  0  0  0  0  0  0  0  0  0
   -2.0353    0.0034    0.0658 C   0  0  0  0  0  0  0  0  0  0  0  0
   -1.0916   -0.5574   -0.8609 N   0  0  0  0  0  0  0  0  0  0  0  0
   -1.3869   -1.7556   -1.6531 C   0  0  0  0  0  0  0  0  0  0  0  0
   -0.1078   -2.5180   -1.9368 C   0  0  0  0  0  0  0  0  0  0  0  0
    0.9195   -1.9537   -2.7162 C   0  0  0  0  0  0  0  0  0  0  0  0
    2.0903   -2.6732   -2.9593 C   0  0  0  0  0  0  0  0  0  0  0  0
    2.2296   -3.9546   -2.4254 C   0  0  0  0  0  0  0  0  0  0  0  0
    1.2313   -4.4917   -1.6760 N   0  0  0  0  0  0  0  0  0  0  0  0
    0.0813   -3.8113   -1.4221 C   0  0  0  0  0  0  0  0  0  0  0  0
   -2.0713   -1.3485   -2.9712 C   0  0  0  0  0  0  0  0  0  0  0  0
   -3.5895   -1.4478   -2.9994 C   0  0  0  0  0  0  0  0  0  0  0  0
   -2.7470   -2.4875   -3.7184 C   0  0  0  0  0  0  0  0  0  0  0  0
   -1.6662    1.1328    0.9364 C   0  0  0  0  0  0  0  0  0  0  0  0
   -0.4043    1.6792    1.0985 C   0  0  0  0  0  0  0  0  0  0  0  0
   -0.5817    2.6823    2.0369 C   0  0  0  0  0  0  0  0  0  0  0  0
   -1.8836    2.7092    2.3922 N   0  0  0  0  0  0  0  0  0  0  0  0
   -2.5446    1.7729    1.7319 N   0  0  0  0  0  0  0  0  0  0  0  0
    0.4741    3.5736    2.5869 C   0  0  0  0  0  0  0  0  0  0  0  0
    0.2500    4.3159    3.7631 C   0  0  0  0  0  0  0  0  0  0  0  0
    1.2491    5.1461    4.2812 C   0  0  0  0  0  0  0  0  0  0  0  0
    2.4825    5.2441    3.6372 C   0  0  0  0  0  0  0  0  0  0  0  0
    2.7195    4.5144    2.4712 C   0  0  0  0  0  0  0  0  0  0  0  0
    1.7240    3.6843    1.9469 C   0  0  0  0  0  0  0  0  0  0  0  0
   -0.2165   -0.0261   -1.0677 H   0  0  0  0  0  0  0  0  0  0  0  0
   -2.0629   -2.4139   -1.0610 H   0  0  0  0  0  0  0  0  0  0  0  0
    0.8144   -0.9596   -3.1333 H   0  0  0  0  0  0  0  0  0  0  0  0
    2.8829   -2.2403   -3.5569 H   0  0  0  0  0  0  0  0  0  0  0  0
    3.1327   -4.5227   -2.6055 H   0  0  0  0  0  0  0  0  0  0  0  0
   -0.6852   -4.2827   -0.8207 H   0  0  0  0  0  0  0  0  0  0  0  0
   -1.6309   -0.5598   -3.6167 H   0  0  0  0  0  0  0  0  0  0  0  0
   -4.0855   -1.8336   -2.0836 H   0  0  0  0  0  0  0  0  0  0  0  0
   -4.0863   -0.7253   -3.6811 H   0  0  0  0  0  0  0  0  0  0  0  0
   -2.7248   -3.4781   -3.2176 H   0  0  0  0  0  0  0  0  0  0  0  0
   -2.7399   -2.3765   -4.8231 H   0  0  0  0  0  0  0  0  0  0  0  0
    0.5175    1.3665    0.6269 H   0  0  0  0  0  0  0  0  0  0  0  0
   -2.3387    3.3610    3.0667 H   0  0  0  0  0  0  0  0  0  0  0  0
   -0.6862    4.2486    4.2977 H   0  0  0  0  0  0  0  0  0  0  0  0
    1.0676    5.7102    5.1871 H   0  0  0  0  0  0  0  0  0  0  0  0
    3.2556    5.8853    4.0418 H   0  0  0  0  0  0  0  0  0  0  0  0
    3.6755    4.5925    1.9712 H   0  0  0  0  0  0  0  0  0  0  0  0
    1.9340    3.1417    1.0352 H   0  0  0  0  0  0  0  0  0  0  0  0
  1  2  2  0
  2  3  1  0
  3  4  1  0
  4  5  1  0
  5  6  2  0
  6  7  1  0
  7  8  2  0
  8  9  1  0
  9 10  2  0
  4 11  1  0
 11 12  1  0
 12 13  1  0
  2 14  1  0
 14 15  1  0
 15 16  2  0
 16 17  1  0
 17 18  1  0
 16 19  1  0
 19 20  2  0
 20 21  1  0
 21 22  2  0
 22 23  1  0
 23 24  2  0
  5 10  1  0
 13 11  1  0
 14 18  2  0
 19 24  1  0
  3 25  1  0
  4 26  1  0
  6 27  1  0
  7 28  1  0
  8 29  1  0
 10 30  1  0
 11 31  1  0
 12 32  1  0
 12 33  1  0
 13 34  1  0
 13 35  1  0
 15 36  1  0
 17 37  1  0
 20 38  1  0
 21 39  1  0
 22 40  1  0
 23 41  1  0
 24 42  1  0
M  END
$$$$
