
     RDKit          3D

 45 48  0  0  0  0  0  0  0  0999 V2000
   -0.1942    4.0244   -1.1216 C   0  0  0  0  0  0  0  0  0  0  0  0
   -0.7254    2.7447   -1.3026 C   0  0  0  0  0  0  0  0  0  0  0  0
   -1.3373    2.0832   -0.2339 C   0  0  0  0  0  0  0  0  0  0  0  0
   -1.4036    2.6909    1.0331 C   0  0  0  0  0  0  0  0  0  0  0  0
   -2.0279    2.0280    2.1449 N   0  0  0  0  0  0  0  0  0  0  0  0
   -1.8838    0.6266    2.4150 C   0  0  0  0  0  0  0  0  0  0  0  0
   -0.9316   -0.1153    1.7583 N   0  0  0  0  0  0  0  0  0  0  0  0
   -0.7525   -1.4460    2.0161 C   0  0  0  0  0  0  0  0  0  0  0  0
    0.2164   -2.2002    1.3453 O   0  0  0  0  0  0  0  0  0  0  0  0
    1.0267   -1.6726    0.2954 C   0  0  0  0  0  0  0  0  0  0  0  0
    0.2255   -1.5747   -1.0218 C   0  0  0  0  0  0  0  0  0  0  0  0
    0.9942   -0.7893   -2.1054 C   0  0  0  0  0  0  0  0  0  0  0  0
    2.1570   -1.5977   -2.6966 C   0  0  0  0  0  0  0  0  0  0  0  0
    1.6686   -2.9423   -3.2455 C   0  0  0  0  0  0  0  0  0  0  0  0
    0.9502   -3.7540   -2.1624 C   0  0  0  0  0  0  0  0  0  0  0  0
   -0.2129   -2.9590   -1.5504 C   0  0  0  0  0  0  0  0  0  0  0  0
   -1.5665   -2.0215    2.9786 C   0  0  0  0  0  0  0  0  0  0  0  0
   -1.6103   -3.2792    3.4303 N   0  0  0  0  0  0  0  0  0  0  0  0
   -2.5938   -3.2491    4.3654 C   0  0  0  0  0  0  0  0  0  0  0  0
   -3.1676   -2.0234    4.5178 N   0  0  0  0  0  0  0  0  0  0  0  0
   -2.4923   -1.2798    3.6258 C   0  0  0  0  0  0  0  0  0  0  0  0
   -2.6695    0.0389    3.3703 N   0  0  0  0  0  0  0  0  0  0  0  0
   -0.8919    3.9870    1.1981 C   0  0  0  0  0  0  0  0  0  0  0  0
   -0.2830    4.6476    0.1262 C   0  0  0  0  0  0  0  0  0  0  0  0
    0.2776    4.5366   -1.9502 H   0  0  0  0  0  0  0  0  0  0  0  0
   -0.6712    2.2686   -2.2732 H   0  0  0  0  0  0  0  0  0  0  0  0
   -1.7791    1.1108   -0.4017 H   0  0  0  0  0  0  0  0  0  0  0  0
   -2.5298    2.6112    2.8522 H   0  0  0  0  0  0  0  0  0  0  0  0
    1.9077   -2.3330    0.1680 H   0  0  0  0  0  0  0  0  0  0  0  0
    1.4122   -0.6720    0.5909 H   0  0  0  0  0  0  0  0  0  0  0  0
   -0.6998   -1.0006   -0.8050 H   0  0  0  0  0  0  0  0  0  0  0  0
    1.3815    0.1645   -1.6855 H   0  0  0  0  0  0  0  0  0  0  0  0
    0.2907   -0.5212   -2.9245 H   0  0  0  0  0  0  0  0  0  0  0  0
    2.6214   -1.0158   -3.5215 H   0  0  0  0  0  0  0  0  0  0  0  0
    2.9379   -1.7661   -1.9240 H   0  0  0  0  0  0  0  0  0  0  0  0
    2.5386   -3.5224   -3.6216 H   0  0  0  0  0  0  0  0  0  0  0  0
    0.9786   -2.7679   -4.1004 H   0  0  0  0  0  0  0  0  0  0  0  0
    0.5519   -4.6878   -2.6144 H   0  0  0  0  0  0  0  0  0  0  0  0
    1.6721   -4.0506   -1.3722 H   0  0  0  0  0  0  0  0  0  0  0  0
   -0.9931   -2.8139   -2.3300 H   0  0  0  0  0  0  0  0  0  0  0  0
   -0.6768   -3.5534   -0.7339 H   0  0  0  0  0  0  0  0  0  0  0  0
   -1.0269   -4.0938    3.1366 H   0  0  0  0  0  0  0  0  0  0  0  0
   -2.8941   -4.1171    4.9373 H   0  0  0  0  0  0  0  0  0  0  0  0
   -0.9524    4.4778    2.1614 H   0  0  0  0  0  0  0  0  0  0  0  0
    0.1204    5.6426    0.2632 H   0  0  0  0  0  0  0  0  0  0  0  0
  1  2  2  0
  2  3  1  0
  3  4  2  0
  4  5  1  0
  5  6  1  0
  6  7  2  0
  7  8  1  0
  8  9  1  0
  9 10  1  0
 10 11  1  0
 11 12  1  0
 12 13  1  0
 13 14  1  0
 14 15  1  0
 15 16  1  0
  8 17  2  0
 17 18  1  0
 18 19  1  0
 19 20  2  0
 20 21  1  0
 21 22  2  0
  4 23  1  0
 23 24  2  0
 24  1  1  0
 22  6  1  0
 16 11  1  0
 21 17  1  0
  1 25  1  0
  2 26  1  0
  3 27  1  0
  5 28  1  0
 10 29  1  0
 10 30  1  0
 11 31  1  0
 12 32  1  0
 12 33  1  0
 13 34  1  0
 13 35  1  0
 14 36  1  0
 14 37  1  0
 15 38  1  0
 15 39  1  0
 16 40  1  0
 16 41  1  0
 18 42  1  0
 19 43  1  0
 23 44  1  0
 24 45  1  0
M  END
$$$$
