
     RDKit          3D

 55 58  0  0  0  0  0  0  0  0999 V2000
   -6.1827    4.4809    1.8405 C   0  0  0  0  0  0  0  0  0  0  0  0
   -5.5841    3.1410    2.2526 C   0  0  0  0  0  0  0  0  0  0  0  0
   -4.4420    2.7781    1.3582 C   0  0  0  0  0  0  0  0  0  0  0  0
   -4.5622    1.9773    0.2824 N   0  0  0  0  0  0  0  0  0  0  0  0
   -3.3778    1.9564   -0.2476 O   0  0  0  0  0  0  0  0  0  0  0  0
   -2.5643    2.7108    0.4520 C   0  0  0  0  0  0  0  0  0  0  0  0
   -3.1960    3.2753    1.5007 N   0  0  0  0  0  0  0  0  0  0  0  0
   -1.1387    2.9188    0.1288 C   0  0  0  0  0  0  0  0  0  0  0  0
   -0.3516    3.7831    0.9012 C   0  0  0  0  0  0  0  0  0  0  0  0
    0.9940    3.9788    0.5907 C   0  0  0  0  0  0  0  0  0  0  0  0
    1.5843    3.3067   -0.4917 C   0  0  0  0  0  0  0  0  0  0  0  0
    3.0467    3.5170   -0.7784 C   0  0  0  0  0  0  0  0  0  0  0  0
    0.8006    2.4304   -1.2797 C   0  0  0  0  0  0  0  0  0  0  0  0
   -0.5594    2.2538   -0.9614 C   0  0  0  0  0  0  0  0  0  0  0  0
    1.3863    1.7227   -2.3929 N   0  0  0  0  0  0  0  0  0  0  0  0
    0.9555    0.3900   -2.8190 C   0  0  0  0  0  0  0  0  0  0  0  0
    1.1041   -0.5952   -1.6901 C   0  0  0  0  0  0  0  0  0  0  0  0
    2.3774   -0.8837   -1.1761 C   0  0  0  0  0  0  0  0  0  0  0  0
    2.5224   -1.7693   -0.1051 C   0  0  0  0  0  0  0  0  0  0  0  0
    1.3973   -2.3911    0.4586 C   0  0  0  0  0  0  0  0  0  0  0  0
    0.1220   -2.0868   -0.0429 C   0  0  0  0  0  0  0  0  0  0  0  0
   -0.0235   -1.2005   -1.1139 C   0  0  0  0  0  0  0  0  0  0  0  0
    1.5411   -3.3078    1.6077 C   0  0  0  0  0  0  0  0  0  0  0  0
    0.7296   -3.2124    2.5681 O   0  0  0  0  0  0  0  0  0  0  0  0
    2.5794   -4.3030    1.6529 N   0  0  0  0  0  0  0  0  0  0  0  0
    3.1159   -4.9655    0.4742 C   0  0  0  0  0  0  0  0  0  0  0  0
    4.1178   -5.9861    0.9953 C   0  0  0  0  0  0  0  0  0  0  0  0
    3.8068   -6.1615    2.4786 C   0  0  0  0  0  0  0  0  0  0  0  0
    3.0053   -4.9337    2.8908 C   0  0  0  0  0  0  0  0  0  0  0  0
   -7.0321    4.7300    2.5109 H   0  0  0  0  0  0  0  0  0  0  0  0
   -6.5572    4.4313    0.7956 H   0  0  0  0  0  0  0  0  0  0  0  0
   -5.4184    5.2844    1.9205 H   0  0  0  0  0  0  0  0  0  0  0  0
   -6.3672    2.3538    2.1970 H   0  0  0  0  0  0  0  0  0  0  0  0
   -5.2251    3.2024    3.3023 H   0  0  0  0  0  0  0  0  0  0  0  0
   -0.7761    4.3108    1.7462 H   0  0  0  0  0  0  0  0  0  0  0  0
    1.5790    4.6512    1.2057 H   0  0  0  0  0  0  0  0  0  0  0  0
    3.1662    4.0335   -1.7544 H   0  0  0  0  0  0  0  0  0  0  0  0
    3.5343    4.1372    0.0043 H   0  0  0  0  0  0  0  0  0  0  0  0
    3.5693    2.5374   -0.8107 H   0  0  0  0  0  0  0  0  0  0  0  0
   -1.1751    1.6046   -1.5677 H   0  0  0  0  0  0  0  0  0  0  0  0
    2.2307    2.1168   -2.8649 H   0  0  0  0  0  0  0  0  0  0  0  0
    1.5897    0.0535   -3.6679 H   0  0  0  0  0  0  0  0  0  0  0  0
   -0.0872    0.4299   -3.1984 H   0  0  0  0  0  0  0  0  0  0  0  0
    3.2558   -0.4083   -1.5951 H   0  0  0  0  0  0  0  0  0  0  0  0
    3.5109   -1.9474    0.2999 H   0  0  0  0  0  0  0  0  0  0  0  0
   -0.7605   -2.5420    0.3897 H   0  0  0  0  0  0  0  0  0  0  0  0
   -1.0160   -0.9822   -1.4874 H   0  0  0  0  0  0  0  0  0  0  0  0
    3.6240   -4.2455   -0.1984 H   0  0  0  0  0  0  0  0  0  0  0  0
    2.2929   -5.4736   -0.0736 H   0  0  0  0  0  0  0  0  0  0  0  0
    4.0355   -6.9500    0.4475 H   0  0  0  0  0  0  0  0  0  0  0  0
    5.1502   -5.5881    0.8792 H   0  0  0  0  0  0  0  0  0  0  0  0
    3.1912   -7.0769    2.6216 H   0  0  0  0  0  0  0  0  0  0  0  0
    4.7387   -6.2549    3.0765 H   0  0  0  0  0  0  0  0  0  0  0  0
    3.6382   -4.2262    3.4684 H   0  0  0  0  0  0  0  0  0  0  0  0
    2.1263   -5.2384    3.5004 H   0  0  0  0  0  0  0  0  0  0  0  0
  1  2  1  0
  2  3  1  0
  3  4  2  0
  4  5  1  0
  5  6  1  0
  6  7  2  0
  6  8  1  0
  8  9  2  0
  9 10  1  0
 10 11  2  0
 11 12  1  0
 11 13  1  0
 13 14  2  0
 13 15  1  0
 15 16  1  0
 16 17  1  0
 17 18  2  0
 18 19  1  0
 19 20  2  0
 20 21  1  0
 21 22  2  0
 20 23  1  0
 23 24  2  0
 23 25  1  0
 25 26  1  0
 26 27  1  0
 27 28  1  0
 28 29  1  0
  7  3  1  0
  8 14  1  0
 17 22  1  0
 29 25  1  0
  1 30  1  0
  1 31  1  0
  1 32  1  0
  2 33  1  0
  2 34  1  0
  9 35  1  0
 10 36  1  0
 12 37  1  0
 12 38  1  0
 12 39  1  0
 14 40  1  0
 15 41  1  0
 16 42  1  0
 16 43  1  0
 18 44  1  0
 19 45  1  0
 21 46  1  0
 22 47  1  0
 26 48  1  0
 26 49  1  0
 27 50  1  0
 27 51  1  0
 28 52  1  0
 28 53  1  0
 29 54  1  0
 29 55  1  0
M  END
$$$$
