
     RDKit          3D

 40 43  0  0  0  0  0  0  0  0999 V2000
   -2.3374   -1.6548    3.7051 O   0  0  0  0  0  0  0  0  0  0  0  0
   -2.9419   -1.8027    2.3372 S   0  0  0  0  0  0  0  0  0  0  0  0
   -4.2658   -1.0985    2.2364 O   0  0  0  0  0  0  0  0  0  0  0  0
   -3.0678   -3.4925    1.8645 C   0  0  0  0  0  0  0  0  0  0  0  0
   -1.8540   -3.7304    0.9612 C   0  0  0  0  0  0  0  0  0  0  0  0
   -1.4407   -2.4111    0.2720 C   0  0  0  0  0  0  0  0  0  0  0  0
   -1.8543   -1.2883    1.1113 N   0  0  0  0  0  0  0  0  0  0  0  0
   -1.5156    0.0932    0.8507 C   0  0  0  0  0  0  0  0  0  0  0  0
   -1.8156    1.0990    1.7897 C   0  0  0  0  0  0  0  0  0  0  0  0
   -1.4781    2.4308    1.5386 C   0  0  0  0  0  0  0  0  0  0  0  0
   -0.8362    2.7818    0.3510 C   0  0  0  0  0  0  0  0  0  0  0  0
   -0.5273    1.7991   -0.5996 C   0  0  0  0  0  0  0  0  0  0  0  0
   -0.8660    0.4605   -0.3451 C   0  0  0  0  0  0  0  0  0  0  0  0
    0.1876    2.1638   -1.8731 C   0  0  0  0  0  0  0  0  0  0  0  0
    1.5339    1.5957   -1.8785 N   0  0  0  0  0  0  0  0  0  0  0  0
    2.5782    2.0873   -1.0247 C   0  0  0  0  0  0  0  0  0  0  0  0
    2.3797    3.1803   -0.2263 N   0  0  0  0  0  0  0  0  0  0  0  0
    3.3669    3.6572    0.5972 C   0  0  0  0  0  0  0  0  0  0  0  0
    4.5886    3.0455    0.6417 N   0  0  0  0  0  0  0  0  0  0  0  0
    4.7904    1.9641   -0.1482 C   0  0  0  0  0  0  0  0  0  0  0  0
    5.9149    1.2346   -0.2346 N   0  0  0  0  0  0  0  0  0  0  0  0
    5.5750    0.2864   -1.1497 C   0  0  0  0  0  0  0  0  0  0  0  0
    4.3067    0.4079   -1.6163 N   0  0  0  0  0  0  0  0  0  0  0  0
    3.8296    1.4782   -0.9682 C   0  0  0  0  0  0  0  0  0  0  0  0
   -4.0061   -3.6457    1.2898 H   0  0  0  0  0  0  0  0  0  0  0  0
   -3.0509   -4.1592    2.7526 H   0  0  0  0  0  0  0  0  0  0  0  0
   -2.0751   -4.5154    0.2063 H   0  0  0  0  0  0  0  0  0  0  0  0
   -1.0077   -4.0834    1.5906 H   0  0  0  0  0  0  0  0  0  0  0  0
   -1.9432   -2.3342   -0.7164 H   0  0  0  0  0  0  0  0  0  0  0  0
   -0.3386   -2.3971    0.1282 H   0  0  0  0  0  0  0  0  0  0  0  0
   -2.3019    0.8631    2.7253 H   0  0  0  0  0  0  0  0  0  0  0  0
   -1.7109    3.1934    2.2706 H   0  0  0  0  0  0  0  0  0  0  0  0
   -0.5761    3.8184    0.1766 H   0  0  0  0  0  0  0  0  0  0  0  0
   -0.6199   -0.2871   -1.0876 H   0  0  0  0  0  0  0  0  0  0  0  0
   -0.3867    1.7581   -2.7342 H   0  0  0  0  0  0  0  0  0  0  0  0
    0.2454    3.2657   -2.0099 H   0  0  0  0  0  0  0  0  0  0  0  0
    1.7269    0.8005   -2.5275 H   0  0  0  0  0  0  0  0  0  0  0  0
    3.1769    4.5228    1.2167 H   0  0  0  0  0  0  0  0  0  0  0  0
    6.2531   -0.4923   -1.4729 H   0  0  0  0  0  0  0  0  0  0  0  0
    3.8269   -0.2008   -2.3153 H   0  0  0  0  0  0  0  0  0  0  0  0
  1  2  2  0
  2  3  2  0
  2  4  1  0
  4  5  1  0
  5  6  1  0
  6  7  1  0
  7  8  1  0
  8  9  2  0
  9 10  1  0
 10 11  2  0
 11 12  1  0
 12 13  2  0
 12 14  1  0
 14 15  1  0
 15 16  1  0
 16 17  2  0
 17 18  1  0
 18 19  2  0
 19 20  1  0
 20 21  1  0
 21 22  2  0
 22 23  1  0
 23 24  1  0
  7  2  1  0
  8 13  1  0
 16 24  1  0
 24 20  2  0
  4 25  1  0
  4 26  1  0
  5 27  1  0
  5 28  1  0
  6 29  1  0
  6 30  1  0
  9 31  1  0
 10 32  1  0
 11 33  1  0
 13 34  1  0
 14 35  1  0
 14 36  1  0
 15 37  1  0
 18 38  1  0
 22 39  1  0
 23 40  1  0
M  END
$$$$
