
     RDKit          3D

 43 45  0  0  0  0  0  0  0  0999 V2000
    0.5964   -1.0222    0.5922 O   0  0  0  0  0  0  0  0  0  0  0  0
    0.5516   -1.5160   -0.5680 C   0  0  0  0  0  0  0  0  0  0  0  0
    1.7355   -1.5252   -1.3837 N   0  0  0  0  0  0  0  0  0  0  0  0
    2.8459   -0.6319   -1.1892 C   0  0  0  0  0  0  0  0  0  0  0  0
    4.1368   -1.0510   -1.5422 C   0  0  0  0  0  0  0  0  0  0  0  0
    5.2272   -0.1935   -1.3807 C   0  0  0  0  0  0  0  0  0  0  0  0
    5.0388    1.0962   -0.8788 C   0  0  0  0  0  0  0  0  0  0  0  0
    3.7472    1.5422   -0.5412 C   0  0  0  0  0  0  0  0  0  0  0  0
    2.6588    0.6757   -0.7041 C   0  0  0  0  0  0  0  0  0  0  0  0
    3.5023    2.8324   -0.0480 O   0  0  0  0  0  0  0  0  0  0  0  0
    4.5096    3.8181    0.1657 C   0  0  0  0  0  0  0  0  0  0  0  0
    3.8731    5.0893    0.7070 C   0  0  0  0  0  0  0  0  0  0  0  0
    2.9664    5.5912   -0.2090 F   0  0  0  0  0  0  0  0  0  0  0  0
   -0.7109   -2.1254   -1.0528 C   0  0  0  0  0  0  0  0  0  0  0  0
   -1.7188   -2.4852   -0.1406 C   0  0  0  0  0  0  0  0  0  0  0  0
   -2.9144   -3.0537   -0.5892 C   0  0  0  0  0  0  0  0  0  0  0  0
   -3.1349   -3.2541   -1.9620 C   0  0  0  0  0  0  0  0  0  0  0  0
   -2.1262   -2.9101   -2.8717 C   0  0  0  0  0  0  0  0  0  0  0  0
   -0.9299   -2.3414   -2.4251 C   0  0  0  0  0  0  0  0  0  0  0  0
   -4.3457   -3.8592   -2.4466 N   0  0  0  0  0  0  0  0  0  0  0  0
   -5.6437   -3.6358   -1.8772 C   0  0  0  0  0  0  0  0  0  0  0  0
   -6.6877   -4.4194   -2.2608 N   0  0  0  0  0  0  0  0  0  0  0  0
   -7.9360   -4.2173   -1.7643 C   0  0  0  0  0  0  0  0  0  0  0  0
   -8.1635   -3.1871   -0.8532 C   0  0  0  0  0  0  0  0  0  0  0  0
   -7.0881   -2.3834   -0.4789 C   0  0  0  0  0  0  0  0  0  0  0  0
   -5.8551   -2.6173   -0.9982 N   0  0  0  0  0  0  0  0  0  0  0  0
    1.8452   -2.2956   -2.0811 H   0  0  0  0  0  0  0  0  0  0  0  0
    4.2986   -2.0474   -1.9339 H   0  0  0  0  0  0  0  0  0  0  0  0
    6.2212   -0.5293   -1.6468 H   0  0  0  0  0  0  0  0  0  0  0  0
    5.9006    1.7393   -0.7645 H   0  0  0  0  0  0  0  0  0  0  0  0
    1.6656    1.0370   -0.4716 H   0  0  0  0  0  0  0  0  0  0  0  0
    5.2518    3.4424    0.9029 H   0  0  0  0  0  0  0  0  0  0  0  0
    5.0238    4.0466   -0.7930 H   0  0  0  0  0  0  0  0  0  0  0  0
    4.6595    5.8507    0.8936 H   0  0  0  0  0  0  0  0  0  0  0  0
    3.3484    4.8732    1.6618 H   0  0  0  0  0  0  0  0  0  0  0  0
   -1.5762   -2.3437    0.9236 H   0  0  0  0  0  0  0  0  0  0  0  0
   -3.6531   -3.3588    0.1399 H   0  0  0  0  0  0  0  0  0  0  0  0
   -2.2748   -3.0688   -3.9325 H   0  0  0  0  0  0  0  0  0  0  0  0
   -0.1880   -2.0568   -3.1595 H   0  0  0  0  0  0  0  0  0  0  0  0
   -4.2939   -4.4350   -3.3175 H   0  0  0  0  0  0  0  0  0  0  0  0
   -8.7512   -4.8547   -2.0794 H   0  0  0  0  0  0  0  0  0  0  0  0
   -9.1524   -3.0129   -0.4495 H   0  0  0  0  0  0  0  0  0  0  0  0
   -7.2329   -1.5719    0.2216 H   0  0  0  0  0  0  0  0  0  0  0  0
  1  2  2  0
  2  3  1  0
  3  4  1  0
  4  5  2  0
  5  6  1  0
  6  7  2  0
  7  8  1  0
  8  9  2  0
  8 10  1  0
 10 11  1  0
 11 12  1  0
 12 13  1  0
  2 14  1  0
 14 15  2  0
 15 16  1  0
 16 17  2  0
 17 18  1  0
 18 19  2  0
 17 20  1  0
 20 21  1  0
 21 22  2  0
 22 23  1  0
 23 24  2  0
 24 25  1  0
 25 26  2  0
  4  9  1  0
 14 19  1  0
 21 26  1  0
  3 27  1  0
  5 28  1  0
  6 29  1  0
  7 30  1  0
  9 31  1  0
 11 32  1  0
 11 33  1  0
 12 34  1  0
 12 35  1  0
 15 36  1  0
 16 37  1  0
 18 38  1  0
 19 39  1  0
 20 40  1  0
 23 41  1  0
 24 42  1  0
 25 43  1  0
M  END
$$$$
