
     RDKit          3D

 46 48  0  0  0  0  0  0  0  0999 V2000
   -3.8368    0.5466   -0.6744 C   0  0  0  0  0  0  0  0  0  0  0  0
   -2.9322    1.3655    0.1980 C   0  0  0  0  0  0  0  0  0  0  0  0
   -3.0283    2.7651    0.2030 C   0  0  0  0  0  0  0  0  0  0  0  0
   -2.2087    3.5229    1.0430 C   0  0  0  0  0  0  0  0  0  0  0  0
   -1.2925    2.8905    1.8870 C   0  0  0  0  0  0  0  0  0  0  0  0
   -1.1909    1.4900    1.8993 C   0  0  0  0  0  0  0  0  0  0  0  0
   -2.0269    0.7328    1.0635 C   0  0  0  0  0  0  0  0  0  0  0  0
   -0.1822    0.8091    2.7898 C   0  0  0  0  0  0  0  0  0  0  0  0
    1.2582    1.0337    2.2940 C   0  0  0  0  0  0  0  0  0  0  0  0
    2.2668    0.4318    3.2857 C   0  0  0  0  0  0  0  0  0  0  0  0
    3.5798    0.7238    2.8878 O   0  0  0  0  0  0  0  0  0  0  0  0
    1.4425    0.4294    0.9681 N   0  0  0  0  0  0  0  0  0  0  0  0
    1.5573    1.2140   -0.2309 C   0  0  0  0  0  0  0  0  0  0  0  0
    1.3083    2.4496   -0.2008 O   0  0  0  0  0  0  0  0  0  0  0  0
    2.0484    0.6212   -1.4907 C   0  0  0  0  0  0  0  0  0  0  0  0
    2.8300    1.2753   -2.4219 C   0  0  0  0  0  0  0  0  0  0  0  0
    3.1941    0.3961   -3.3706 N   0  0  0  0  0  0  0  0  0  0  0  0
    2.6760   -0.7913   -3.1039 N   0  0  0  0  0  0  0  0  0  0  0  0
    1.9653   -0.6864   -1.9628 C   0  0  0  0  0  0  0  0  0  0  0  0
    1.1630   -1.7996   -1.4238 C   0  0  0  0  0  0  0  0  0  0  0  0
   -0.1582   -1.5893   -0.9981 C   0  0  0  0  0  0  0  0  0  0  0  0
   -0.9223   -2.6581   -0.5198 C   0  0  0  0  0  0  0  0  0  0  0  0
   -0.3763   -3.9431   -0.4701 C   0  0  0  0  0  0  0  0  0  0  0  0
    0.9327   -4.1646   -0.9099 C   0  0  0  0  0  0  0  0  0  0  0  0
    1.6135   -5.7803   -0.8590 Cl  0  0  0  0  0  0  0  0  0  0  0  0
    1.6977   -3.0974   -1.3945 C   0  0  0  0  0  0  0  0  0  0  0  0
   -4.7403    0.2558   -0.0991 H   0  0  0  0  0  0  0  0  0  0  0  0
   -4.1483    1.1230   -1.5714 H   0  0  0  0  0  0  0  0  0  0  0  0
   -3.3165   -0.3712   -1.0213 H   0  0  0  0  0  0  0  0  0  0  0  0
   -3.7376    3.2693   -0.4417 H   0  0  0  0  0  0  0  0  0  0  0  0
   -2.2838    4.6026    1.0403 H   0  0  0  0  0  0  0  0  0  0  0  0
   -0.6610    3.4913    2.5295 H   0  0  0  0  0  0  0  0  0  0  0  0
   -1.9723   -0.3478    1.0854 H   0  0  0  0  0  0  0  0  0  0  0  0
   -0.2902    1.2188    3.8181 H   0  0  0  0  0  0  0  0  0  0  0  0
   -0.3879   -0.2827    2.8511 H   0  0  0  0  0  0  0  0  0  0  0  0
    1.4562    2.1278    2.2535 H   0  0  0  0  0  0  0  0  0  0  0  0
    2.1196   -0.6696    3.3767 H   0  0  0  0  0  0  0  0  0  0  0  0
    2.1050    0.8753    4.2915 H   0  0  0  0  0  0  0  0  0  0  0  0
    3.8305    0.0472    2.2060 H   0  0  0  0  0  0  0  0  0  0  0  0
    1.5659   -0.6056    0.9183 H   0  0  0  0  0  0  0  0  0  0  0  0
    3.1444    2.3106   -2.3917 H   0  0  0  0  0  0  0  0  0  0  0  0
    3.7978    0.6007   -4.1971 H   0  0  0  0  0  0  0  0  0  0  0  0
   -0.6001   -0.6032   -1.0549 H   0  0  0  0  0  0  0  0  0  0  0  0
   -1.9413   -2.4935   -0.1952 H   0  0  0  0  0  0  0  0  0  0  0  0
   -0.9731   -4.7662   -0.0982 H   0  0  0  0  0  0  0  0  0  0  0  0
    2.7099   -3.2775   -1.7363 H   0  0  0  0  0  0  0  0  0  0  0  0
  1  2  1  0
  2  3  2  0
  3  4  1  0
  4  5  2  0
  5  6  1  0
  6  7  2  0
  6  8  1  0
  8  9  1  0
  9 10  1  0
 10 11  1  0
  9 12  1  0
 12 13  1  0
 13 14  2  0
 13 15  1  0
 15 16  2  0
 16 17  1  0
 17 18  1  0
 18 19  2  0
 19 20  1  0
 20 21  2  0
 21 22  1  0
 22 23  2  0
 23 24  1  0
 24 25  1  0
 24 26  2  0
  2  7  1  0
 19 15  1  0
 20 26  1  0
  1 27  1  0
  1 28  1  0
  1 29  1  0
  3 30  1  0
  4 31  1  0
  5 32  1  0
  7 33  1  0
  8 34  1  0
  8 35  1  0
  9 36  1  0
 10 37  1  0
 10 38  1  0
 11 39  1  0
 12 40  1  0
 16 41  1  0
 17 42  1  0
 21 43  1  0
 22 44  1  0
 23 45  1  0
 26 46  1  0
M  END
$$$$
