
     RDKit          3D

 48 51  0  0  0  0  0  0  0  0999 V2000
   -6.4530   -0.5936    5.3983 C   0  0  0  0  0  0  0  0  0  0  0  0
   -6.5414   -1.1409    4.0883 O   0  0  0  0  0  0  0  0  0  0  0  0
   -5.5700   -0.9173    3.1083 C   0  0  0  0  0  0  0  0  0  0  0  0
   -5.7307   -1.5000    1.8331 C   0  0  0  0  0  0  0  0  0  0  0  0
   -4.7628   -1.2876    0.8379 C   0  0  0  0  0  0  0  0  0  0  0  0
   -3.6609   -0.4943    1.1474 C   0  0  0  0  0  0  0  0  0  0  0  0
   -2.6434   -0.2052    0.2983 N   0  0  0  0  0  0  0  0  0  0  0  0
   -1.7260    0.5928    0.9016 C   0  0  0  0  0  0  0  0  0  0  0  0
   -0.5235    1.0051    0.2380 N   0  0  0  0  0  0  0  0  0  0  0  0
    0.3859    1.9914    0.7508 C   0  0  0  0  0  0  0  0  0  0  0  0
   -0.0111    2.8379    1.5976 O   0  0  0  0  0  0  0  0  0  0  0  0
    1.7375    2.0547    0.2591 N   0  0  0  0  0  0  0  0  0  0  0  0
    2.4868    3.3164    0.3146 C   0  0  0  0  0  0  0  0  0  0  0  0
    3.3463    3.4760   -0.9440 C   0  0  0  0  0  0  0  0  0  0  0  0
    4.2018    2.2272   -1.1903 C   0  0  0  0  0  0  0  0  0  0  0  0
    3.3204    0.9672   -1.2816 C   0  0  0  0  0  0  0  0  0  0  0  0
    2.4938    0.8215    0.0064 C   0  0  0  0  0  0  0  0  0  0  0  0
    4.1514   -0.2263   -1.4889 N   0  0  0  0  0  0  0  0  0  0  0  0
    3.6430   -1.5163   -1.8875 C   0  0  0  0  0  0  0  0  0  0  0  0
    2.3082   -1.7017   -2.3048 C   0  0  0  0  0  0  0  0  0  0  0  0
    1.8558   -2.9695   -2.6844 C   0  0  0  0  0  0  0  0  0  0  0  0
    2.7247   -4.0622   -2.6582 C   0  0  0  0  0  0  0  0  0  0  0  0
    4.0493   -3.8899   -2.2528 C   0  0  0  0  0  0  0  0  0  0  0  0
    4.5072   -2.6250   -1.8716 C   0  0  0  0  0  0  0  0  0  0  0  0
   -2.1334    0.9498    2.5159 S   0  0  0  0  0  0  0  0  0  0  0  0
   -3.5464    0.0565    2.4070 C   0  0  0  0  0  0  0  0  0  0  0  0
   -4.4728   -0.1442    3.3755 N   0  0  0  0  0  0  0  0  0  0  0  0
   -6.4377    0.5157    5.3468 H   0  0  0  0  0  0  0  0  0  0  0  0
   -7.3367   -0.9136    5.9872 H   0  0  0  0  0  0  0  0  0  0  0  0
   -5.5331   -0.9589    5.9022 H   0  0  0  0  0  0  0  0  0  0  0  0
   -6.5976   -2.1123    1.6200 H   0  0  0  0  0  0  0  0  0  0  0  0
   -4.8722   -1.7306   -0.1437 H   0  0  0  0  0  0  0  0  0  0  0  0
   -0.3141    0.5744   -0.6905 H   0  0  0  0  0  0  0  0  0  0  0  0
    3.1349    3.3205    1.2179 H   0  0  0  0  0  0  0  0  0  0  0  0
    1.7952    4.1846    0.3782 H   0  0  0  0  0  0  0  0  0  0  0  0
    2.6856    3.6510   -1.8215 H   0  0  0  0  0  0  0  0  0  0  0  0
    4.0081    4.3615   -0.8295 H   0  0  0  0  0  0  0  0  0  0  0  0
    4.9409    2.1190   -0.3658 H   0  0  0  0  0  0  0  0  0  0  0  0
    4.7636    2.3552   -2.1407 H   0  0  0  0  0  0  0  0  0  0  0  0
    2.6404    1.1009   -2.1507 H   0  0  0  0  0  0  0  0  0  0  0  0
    3.1711    0.6295    0.8677 H   0  0  0  0  0  0  0  0  0  0  0  0
    1.8201   -0.0548   -0.0746 H   0  0  0  0  0  0  0  0  0  0  0  0
    5.1811   -0.1442   -1.3224 H   0  0  0  0  0  0  0  0  0  0  0  0
    1.6085   -0.8797   -2.3451 H   0  0  0  0  0  0  0  0  0  0  0  0
    0.8294   -3.1043   -3.0009 H   0  0  0  0  0  0  0  0  0  0  0  0
    2.3716   -5.0422   -2.9524 H   0  0  0  0  0  0  0  0  0  0  0  0
    4.7230   -4.7373   -2.2327 H   0  0  0  0  0  0  0  0  0  0  0  0
    5.5374   -2.5095   -1.5583 H   0  0  0  0  0  0  0  0  0  0  0  0
  1  2  1  0
  2  3  1  0
  3  4  2  0
  4  5  1  0
  5  6  2  0
  6  7  1  0
  7  8  2  0
  8  9  1  0
  9 10  1  0
 10 11  2  0
 10 12  1  0
 12 13  1  0
 13 14  1  0
 14 15  1  0
 15 16  1  0
 16 17  1  0
 16 18  1  0
 18 19  1  0
 19 20  2  0
 20 21  1  0
 21 22  2  0
 22 23  1  0
 23 24  2  0
  8 25  1  0
 25 26  1  0
 26 27  2  0
  3 27  1  0
  6 26  1  0
 17 12  1  0
 19 24  1  0
  1 28  1  0
  1 29  1  0
  1 30  1  0
  4 31  1  0
  5 32  1  0
  9 33  1  0
 13 34  1  0
 13 35  1  0
 14 36  1  0
 14 37  1  0
 15 38  1  0
 15 39  1  0
 16 40  1  0
 17 41  1  0
 17 42  1  0
 18 43  1  0
 20 44  1  0
 21 45  1  0
 22 46  1  0
 23 47  1  0
 24 48  1  0
M  END
$$$$
