
     RDKit          3D

 37 40  0  0  0  0  0  0  0  0999 V2000
   -2.6843   -0.8751   -0.5760 O   0  0  0  0  0  0  0  0  0  0  0  0
   -1.4398   -0.9332   -0.7598 C   0  0  0  0  0  0  0  0  0  0  0  0
   -0.6633   -2.0861   -0.4633 N   0  0  0  0  0  0  0  0  0  0  0  0
    0.7378   -1.7621   -0.7303 C   0  0  0  0  0  0  0  0  0  0  0  0
    1.3658   -2.7221   -1.7707 C   0  0  0  0  0  0  0  0  0  0  0  0
    2.6050   -3.3554   -1.1059 C   0  0  0  0  0  0  0  0  0  0  0  0
    2.6034   -2.8100    0.2739 C   0  0  0  0  0  0  0  0  0  0  0  0
    3.5154   -3.1118    1.2886 C   0  0  0  0  0  0  0  0  0  0  0  0
    3.3611   -2.4977    2.5409 C   0  0  0  0  0  0  0  0  0  0  0  0
    2.3046   -1.5959    2.7606 C   0  0  0  0  0  0  0  0  0  0  0  0
    1.4001   -1.3050    1.7284 C   0  0  0  0  0  0  0  0  0  0  0  0
    1.5734   -1.9270    0.4868 C   0  0  0  0  0  0  0  0  0  0  0  0
    0.6739   -0.3327   -1.1966 C   0  0  0  0  0  0  0  0  0  0  0  0
    1.6780    0.3707   -1.4898 O   0  0  0  0  0  0  0  0  0  0  0  0
   -0.6643    0.1505   -1.2508 N   0  0  0  0  0  0  0  0  0  0  0  0
   -1.0796    1.5486   -1.3502 C   0  0  0  0  0  0  0  0  0  0  0  0
   -2.2265    1.6879   -2.3112 C   0  0  0  0  0  0  0  0  0  0  0  0
   -3.4657    1.9690   -1.8204 N   0  0  0  0  0  0  0  0  0  0  0  0
   -4.5524    2.0902   -2.6275 C   0  0  0  0  0  0  0  0  0  0  0  0
   -4.4205    1.9217   -4.0070 C   0  0  0  0  0  0  0  0  0  0  0  0
   -5.8175    2.0743   -5.0565 Cl  0  0  0  0  0  0  0  0  0  0  0  0
   -3.1645    1.6283   -4.5414 C   0  0  0  0  0  0  0  0  0  0  0  0
   -2.0556    1.5070   -3.6986 C   0  0  0  0  0  0  0  0  0  0  0  0
   -0.4874    1.1298   -4.4034 Cl  0  0  0  0  0  0  0  0  0  0  0  0
   -1.0272   -2.9849   -0.0748 H   0  0  0  0  0  0  0  0  0  0  0  0
    1.6647   -2.1860   -2.6986 H   0  0  0  0  0  0  0  0  0  0  0  0
    0.6465   -3.5214   -2.0557 H   0  0  0  0  0  0  0  0  0  0  0  0
    3.5352   -3.0516   -1.6326 H   0  0  0  0  0  0  0  0  0  0  0  0
    2.5221   -4.4634   -1.0820 H   0  0  0  0  0  0  0  0  0  0  0  0
    4.3265   -3.8069    1.1138 H   0  0  0  0  0  0  0  0  0  0  0  0
    4.0569   -2.7189    3.3397 H   0  0  0  0  0  0  0  0  0  0  0  0
    2.1889   -1.1248    3.7281 H   0  0  0  0  0  0  0  0  0  0  0  0
    0.5852   -0.6114    1.8910 H   0  0  0  0  0  0  0  0  0  0  0  0
   -0.2332    2.1785   -1.6985 H   0  0  0  0  0  0  0  0  0  0  0  0
   -1.3726    1.9142   -0.3423 H   0  0  0  0  0  0  0  0  0  0  0  0
   -5.5179    2.3158   -2.1943 H   0  0  0  0  0  0  0  0  0  0  0  0
   -3.0506    1.4932   -5.6097 H   0  0  0  0  0  0  0  0  0  0  0  0
  1  2  2  0
  2  3  1  0
  3  4  1  0
  4  5  1  0
  5  6  1  0
  6  7  1  0
  7  8  2  0
  8  9  1  0
  9 10  2  0
 10 11  1  0
 11 12  2  0
  4 13  1  0
 13 14  2  0
 13 15  1  0
 15 16  1  0
 16 17  1  0
 17 18  2  0
 18 19  1  0
 19 20  2  0
 20 21  1  0
 20 22  1  0
 22 23  2  0
 23 24  1  0
 15  2  1  0
 12  4  1  0
  7 12  1  0
 17 23  1  0
  3 25  1  0
  5 26  1  0
  5 27  1  0
  6 28  1  0
  6 29  1  0
  8 30  1  0
  9 31  1  0
 10 32  1  0
 11 33  1  0
 16 34  1  0
 16 35  1  0
 19 36  1  0
 22 37  1  0
M  END
$$$$
