
     RDKit          3D

 42 45  0  0  0  0  0  0  0  0999 V2000
    0.8503   -1.8229   -4.7801 O   0  0  0  0  0  0  0  0  0  0  0  0
    1.0866   -1.8222   -3.5418 C   0  0  0  0  0  0  0  0  0  0  0  0
    2.4885   -1.7605   -3.0876 C   0  0  0  0  0  0  0  0  0  0  0  0
    3.5556   -2.4116   -3.6700 C   0  0  0  0  0  0  0  0  0  0  0  0
    4.6467   -2.2010   -2.9130 N   0  0  0  0  0  0  0  0  0  0  0  0
    4.3362   -1.4348   -1.8794 N   0  0  0  0  0  0  0  0  0  0  0  0
    3.0238   -1.1409   -1.9647 C   0  0  0  0  0  0  0  0  0  0  0  0
    2.3429   -0.2410   -1.0218 C   0  0  0  0  0  0  0  0  0  0  0  0
    1.3050    0.6370   -1.3206 C   0  0  0  0  0  0  0  0  0  0  0  0
    0.8879    1.3941   -0.2207 C   0  0  0  0  0  0  0  0  0  0  0  0
    1.6038    1.1168    0.9335 C   0  0  0  0  0  0  0  0  0  0  0  0
    1.3570    1.8717    2.4933 Cl  0  0  0  0  0  0  0  0  0  0  0  0
    2.7623   -0.0526    0.5974 S   0  0  0  0  0  0  0  0  0  0  0  0
   -0.0069   -1.9012   -2.6073 N   0  0  0  0  0  0  0  0  0  0  0  0
    0.0776   -2.7763   -1.4293 C   0  0  0  0  0  0  0  0  0  0  0  0
   -0.6383   -2.1548   -0.2101 C   0  0  0  0  0  0  0  0  0  0  0  0
   -1.5225   -1.0244   -0.5749 N   0  0  0  0  0  0  0  0  0  0  0  0
   -2.4249   -0.7002    0.5470 C   0  0  0  0  0  0  0  0  0  0  0  0
   -2.9686    0.7279    0.3994 C   0  0  0  0  0  0  0  0  0  0  0  0
   -4.0177    1.1012    1.4364 C   0  0  0  0  0  0  0  0  0  0  0  0
   -4.4299    0.8601   -0.0059 C   0  0  0  0  0  0  0  0  0  0  0  0
   -2.2772   -1.3370   -1.8026 C   0  0  0  0  0  0  0  0  0  0  0  0
   -1.3127   -1.3499   -2.9924 C   0  0  0  0  0  0  0  0  0  0  0  0
    3.5336   -3.0256   -4.5610 H   0  0  0  0  0  0  0  0  0  0  0  0
    5.6015   -2.5811   -3.0953 H   0  0  0  0  0  0  0  0  0  0  0  0
    0.8760    0.7502   -2.3064 H   0  0  0  0  0  0  0  0  0  0  0  0
    0.0974    2.1302   -0.2709 H   0  0  0  0  0  0  0  0  0  0  0  0
   -0.4058   -3.7454   -1.6806 H   0  0  0  0  0  0  0  0  0  0  0  0
    1.1307   -3.0040   -1.1616 H   0  0  0  0  0  0  0  0  0  0  0  0
   -1.2131   -2.9563    0.3088 H   0  0  0  0  0  0  0  0  0  0  0  0
    0.1311   -1.7848    0.5017 H   0  0  0  0  0  0  0  0  0  0  0  0
   -1.8575   -0.7220    1.5048 H   0  0  0  0  0  0  0  0  0  0  0  0
   -3.2401   -1.4559    0.6305 H   0  0  0  0  0  0  0  0  0  0  0  0
   -2.2923    1.5619    0.1169 H   0  0  0  0  0  0  0  0  0  0  0  0
   -4.0181    2.1725    1.7294 H   0  0  0  0  0  0  0  0  0  0  0  0
   -4.3301    0.2935    2.1329 H   0  0  0  0  0  0  0  0  0  0  0  0
   -4.9848   -0.0888   -0.1657 H   0  0  0  0  0  0  0  0  0  0  0  0
   -4.6655    1.7874   -0.5694 H   0  0  0  0  0  0  0  0  0  0  0  0
   -2.7838   -2.3253   -1.7117 H   0  0  0  0  0  0  0  0  0  0  0  0
   -3.0575   -0.5710   -2.0000 H   0  0  0  0  0  0  0  0  0  0  0  0
   -1.7470   -1.9475   -3.8226 H   0  0  0  0  0  0  0  0  0  0  0  0
   -1.1737   -0.3050   -3.3466 H   0  0  0  0  0  0  0  0  0  0  0  0
  1  2  2  0
  2  3  1  0
  3  4  2  0
  4  5  1  0
  5  6  1  0
  6  7  2  0
  7  8  1  0
  8  9  2  0
  9 10  1  0
 10 11  2  0
 11 12  1  0
 11 13  1  0
  2 14  1  0
 14 15  1  0
 15 16  1  0
 16 17  1  0
 17 18  1  0
 18 19  1  0
 19 20  1  0
 20 21  1  0
 17 22  1  0
 22 23  1  0
  7  3  1  0
 13  8  1  0
 23 14  1  0
 21 19  1  0
  4 24  1  0
  5 25  1  0
  9 26  1  0
 10 27  1  0
 15 28  1  0
 15 29  1  0
 16 30  1  0
 16 31  1  0
 18 32  1  0
 18 33  1  0
 19 34  1  0
 20 35  1  0
 20 36  1  0
 21 37  1  0
 21 38  1  0
 22 39  1  0
 22 40  1  0
 23 41  1  0
 23 42  1  0
M  END
$$$$
