
     RDKit          3D

  0  0  0  0  0  0  0  0  0  0999 V3000
M  V30 BEGIN CTAB
M  V30 COUNTS 40 43 0 0 0
M  V30 BEGIN ATOM
M  V30 1 O 1.278598 0.052903 -0.584798 0
M  V30 2 C 0.283319 -0.048338 -1.352098 0
M  V30 3 N -0.613436 -1.161084 -1.220045 0
M  V30 4 C -0.453545 -2.161449 -0.158697 0
M  V30 5 C -1.476094 -3.292374 -0.265008 0
M  V30 6 C -1.643635 -3.807555 1.158268 0
M  V30 7 C -1.357665 -2.617322 2.077770 0 CFG=2
M  V30 8 C -2.539797 -1.665151 2.271360 0
M  V30 9 C -1.832203 -0.615527 1.425754 0
M  V30 10 C -0.641224 -1.564564 1.244943 0 CFG=2
M  V30 11 C 0.058860 0.973878 -2.391133 0
M  V30 12 C -0.534890 0.773349 -3.621279 0
M  V30 13 N -0.435792 1.909647 -4.332443 0
M  V30 14 N 0.188302 2.833439 -3.619925 0
M  V30 15 C 0.499423 2.293596 -2.424033 0
M  V30 16 C 1.152548 3.059855 -1.342127 0
M  V30 17 C 0.742287 2.916401 -0.004619 0
M  V30 18 C 1.352980 3.666546 1.004723 0
M  V30 19 C 2.364932 4.575709 0.687317 0
M  V30 20 C 2.763456 4.741829 -0.641889 0
M  V30 21 F 3.738511 5.631831 -0.950190 0
M  V30 22 C 2.155584 3.992456 -1.654590 0
M  V30 23 H -1.407176 -1.249691 -1.893713 0
M  V30 24 H 0.565567 -2.604185 -0.223780 0
M  V30 25 H -2.455456 -2.905868 -0.624998 0
M  V30 26 H -1.124353 -4.094944 -0.948685 0
M  V30 27 H -0.889355 -4.601300 1.351441 0
M  V30 28 H -2.657727 -4.231035 1.324465 0
M  V30 29 H -0.834412 -2.877031 3.024429 0
M  V30 30 H -3.489004 -2.014461 1.808602 0
M  V30 31 H -2.653117 -1.345940 3.330248 0
M  V30 32 H -2.389861 -0.387212 0.491664 0
M  V30 33 H -1.562940 0.289312 2.013087 0
M  V30 34 H 0.295202 -1.192008 1.715832 0
M  V30 35 H -0.970899 -0.144515 -3.993440 0
M  V30 36 H -0.782453 2.055109 -5.306085 0
M  V30 37 H -0.061893 2.240416 0.257690 0
M  V30 38 H 1.034864 3.549426 2.032435 0
M  V30 39 H 2.833563 5.156968 1.470823 0
M  V30 40 H 2.474265 4.131534 -2.680454 0
M  V30 END ATOM
M  V30 BEGIN BOND
M  V30 1 2 1 2
M  V30 2 1 2 3
M  V30 3 1 3 4
M  V30 4 1 4 5
M  V30 5 1 5 6
M  V30 6 1 6 7
M  V30 7 1 7 8
M  V30 8 1 8 9
M  V30 9 1 9 10
M  V30 10 1 2 11
M  V30 11 2 11 12
M  V30 12 1 12 13
M  V30 13 1 13 14
M  V30 14 2 14 15
M  V30 15 1 15 16
M  V30 16 2 16 17
M  V30 17 1 17 18
M  V30 18 2 18 19
M  V30 19 1 19 20
M  V30 20 1 20 21
M  V30 21 2 20 22
M  V30 22 1 10 4
M  V30 23 1 10 7
M  V30 24 1 15 11
M  V30 25 1 16 22
M  V30 26 1 3 23
M  V30 27 1 4 24
M  V30 28 1 5 25
M  V30 29 1 5 26
M  V30 30 1 6 27
M  V30 31 1 6 28
M  V30 32 1 7 29 CFG=1
M  V30 33 1 8 30
M  V30 34 1 8 31
M  V30 35 1 9 32
M  V30 36 1 9 33
M  V30 37 1 10 34 CFG=1
M  V30 38 1 12 35
M  V30 39 1 13 36
M  V30 40 1 17 37
M  V30 41 1 18 38
M  V30 42 1 19 39
M  V30 43 1 22 40
M  V30 END BOND
M  V30 BEGIN COLLECTION
M  V30 MDLV30/STERAC1 ATOMS=(2 7 10)
M  V30 END COLLECTION
M  V30 END CTAB
M  END
>  <_CXSMILES_Data>  (1) 
|&1:6,9,r|

$$$$
