
     RDKit          3D

 40 42  0  0  0  0  0  0  0  0999 V2000
    4.8958   -3.3542    1.1748 C   0  0  0  0  0  0  0  0  0  0  0  0
    3.5255   -2.9885    1.2828 O   0  0  0  0  0  0  0  0  0  0  0  0
    3.1117   -1.6986    1.6300 C   0  0  0  0  0  0  0  0  0  0  0  0
    3.9737   -0.8142    1.8919 O   0  0  0  0  0  0  0  0  0  0  0  0
    1.6663   -1.3693    1.7312 C   0  0  0  0  0  0  0  0  0  0  0  0
    1.2769   -0.3230    2.5886 C   0  0  0  0  0  0  0  0  0  0  0  0
   -0.0675    0.0131    2.7462 C   0  0  0  0  0  0  0  0  0  0  0  0
   -1.0582   -0.6968    2.0607 C   0  0  0  0  0  0  0  0  0  0  0  0
   -0.6862   -1.7229    1.1825 C   0  0  0  0  0  0  0  0  0  0  0  0
    0.6660   -2.0625    0.9969 C   0  0  0  0  0  0  0  0  0  0  0  0
    1.0015   -3.1473    0.0062 C   0  0  0  0  0  0  0  0  0  0  0  0
   -2.5032   -0.3019    2.1931 C   0  0  0  0  0  0  0  0  0  0  0  0
   -2.8481    0.6566    1.1502 N   0  0  0  0  0  0  0  0  0  0  0  0
   -3.2084    0.3705   -0.1119 C   0  0  0  0  0  0  0  0  0  0  0  0
   -3.3079    1.5810   -0.7599 C   0  0  0  0  0  0  0  0  0  0  0  0
   -3.5638    1.7891   -2.2171 C   0  0  0  0  0  0  0  0  0  0  0  0
   -2.3257    1.6038   -2.9656 N   0  0  0  0  0  0  0  0  0  0  0  0
   -1.8327    0.4290   -3.3997 C   0  0  0  0  0  0  0  0  0  0  0  0
   -0.6095    0.6651   -3.9881 C   0  0  0  0  0  0  0  0  0  0  0  0
   -0.4164    2.0280   -3.8637 C   0  0  0  0  0  0  0  0  0  0  0  0
   -1.4705    2.5783   -3.2302 N   0  0  0  0  0  0  0  0  0  0  0  0
   -2.9799    2.5599    0.1075 N   0  0  0  0  0  0  0  0  0  0  0  0
   -2.7052    1.9680    1.2615 N   0  0  0  0  0  0  0  0  0  0  0  0
    5.3933   -2.7375    0.3966 H   0  0  0  0  0  0  0  0  0  0  0  0
    5.4057   -3.2110    2.1509 H   0  0  0  0  0  0  0  0  0  0  0  0
    4.9657   -4.4228    0.8857 H   0  0  0  0  0  0  0  0  0  0  0  0
    2.0163    0.2326    3.1523 H   0  0  0  0  0  0  0  0  0  0  0  0
   -0.3361    0.8275    3.4079 H   0  0  0  0  0  0  0  0  0  0  0  0
   -1.4561   -2.2485    0.6296 H   0  0  0  0  0  0  0  0  0  0  0  0
    1.8265   -2.8181   -0.6600 H   0  0  0  0  0  0  0  0  0  0  0  0
    1.2944   -4.0715    0.5464 H   0  0  0  0  0  0  0  0  0  0  0  0
    0.1337   -3.3890   -0.6441 H   0  0  0  0  0  0  0  0  0  0  0  0
   -2.6932    0.1489    3.1916 H   0  0  0  0  0  0  0  0  0  0  0  0
   -3.1561   -1.1986    2.1112 H   0  0  0  0  0  0  0  0  0  0  0  0
   -3.3389   -0.6211   -0.5262 H   0  0  0  0  0  0  0  0  0  0  0  0
   -3.9548    2.8156   -2.3851 H   0  0  0  0  0  0  0  0  0  0  0  0
   -4.3325    1.0676   -2.5699 H   0  0  0  0  0  0  0  0  0  0  0  0
   -2.3190   -0.5311   -3.2839 H   0  0  0  0  0  0  0  0  0  0  0  0
    0.0579   -0.0583   -4.4365 H   0  0  0  0  0  0  0  0  0  0  0  0
    0.4465    2.5832   -4.2057 H   0  0  0  0  0  0  0  0  0  0  0  0
  1  2  1  0
  2  3  1  0
  3  4  2  0
  3  5  1  0
  5  6  2  0
  6  7  1  0
  7  8  2  0
  8  9  1  0
  9 10  2  0
 10 11  1  0
  8 12  1  0
 12 13  1  0
 13 14  1  0
 14 15  2  0
 15 16  1  0
 16 17  1  0
 17 18  1  0
 18 19  2  0
 19 20  1  0
 20 21  2  0
 15 22  1  0
 22 23  2  0
  5 10  1  0
 23 13  1  0
 21 17  1  0
  1 24  1  0
  1 25  1  0
  1 26  1  0
  6 27  1  0
  7 28  1  0
  9 29  1  0
 11 30  1  0
 11 31  1  0
 11 32  1  0
 12 33  1  0
 12 34  1  0
 14 35  1  0
 16 36  1  0
 16 37  1  0
 18 38  1  0
 19 39  1  0
 20 40  1  0
M  END
$$$$
