
     RDKit          3D

 40 43  0  0  0  0  0  0  0  0999 V2000
    0.0230    0.6972   -2.1172 O   0  0  0  0  0  0  0  0  0  0  0  0
    0.4290    0.1424   -1.0594 C   0  0  0  0  0  0  0  0  0  0  0  0
    1.8356   -0.0868   -0.8659 N   0  0  0  0  0  0  0  0  0  0  0  0
    2.8519    0.5402   -1.6642 C   0  0  0  0  0  0  0  0  0  0  0  0
    2.6156    1.4900   -2.5983 N   0  0  0  0  0  0  0  0  0  0  0  0
    3.7920    1.8428   -3.1095 N   0  0  0  0  0  0  0  0  0  0  0  0
    4.7173    1.1014   -2.4718 C   0  0  0  0  0  0  0  0  0  0  0  0
    6.0945    1.1305   -2.6749 C   0  0  0  0  0  0  0  0  0  0  0  0
    6.8818    0.2682   -1.8927 C   0  0  0  0  0  0  0  0  0  0  0  0
    6.2797   -0.5849   -0.9450 C   0  0  0  0  0  0  0  0  0  0  0  0
    4.8852   -0.5683   -0.7863 C   0  0  0  0  0  0  0  0  0  0  0  0
    4.1674    0.2821   -1.5653 N   0  0  0  0  0  0  0  0  0  0  0  0
   -0.5610   -0.2947   -0.0449 C   0  0  0  0  0  0  0  0  0  0  0  0
   -0.1960   -0.4469    1.3049 C   0  0  0  0  0  0  0  0  0  0  0  0
   -1.1433   -0.8384    2.2536 C   0  0  0  0  0  0  0  0  0  0  0  0
   -2.4621   -1.0863    1.8695 C   0  0  0  0  0  0  0  0  0  0  0  0
   -2.8458   -0.9544    0.5287 C   0  0  0  0  0  0  0  0  0  0  0  0
   -1.8962   -0.5338   -0.4202 C   0  0  0  0  0  0  0  0  0  0  0  0
   -4.2165   -1.1865    0.1608 N   0  0  0  0  0  0  0  0  0  0  0  0
   -4.6403   -1.6931   -1.1167 C   0  0  0  0  0  0  0  0  0  0  0  0
   -5.9002   -1.3318   -1.6187 C   0  0  0  0  0  0  0  0  0  0  0  0
   -6.3427   -1.8335   -2.8467 C   0  0  0  0  0  0  0  0  0  0  0  0
   -5.5370   -2.7122   -3.5755 C   0  0  0  0  0  0  0  0  0  0  0  0
   -4.2909   -3.0965   -3.0735 C   0  0  0  0  0  0  0  0  0  0  0  0
   -3.8450   -2.5968   -1.8460 C   0  0  0  0  0  0  0  0  0  0  0  0
    2.1355   -0.7683   -0.1356 H   0  0  0  0  0  0  0  0  0  0  0  0
    6.5425    1.7912   -3.4058 H   0  0  0  0  0  0  0  0  0  0  0  0
    7.9566    0.2591   -2.0186 H   0  0  0  0  0  0  0  0  0  0  0  0
    6.8884   -1.2480   -0.3442 H   0  0  0  0  0  0  0  0  0  0  0  0
    4.4060   -1.2165   -0.0650 H   0  0  0  0  0  0  0  0  0  0  0  0
    0.8111   -0.2350    1.6384 H   0  0  0  0  0  0  0  0  0  0  0  0
   -0.8557   -0.9427    3.2919 H   0  0  0  0  0  0  0  0  0  0  0  0
   -3.1862   -1.3872    2.6163 H   0  0  0  0  0  0  0  0  0  0  0  0
   -2.1992   -0.3880   -1.4493 H   0  0  0  0  0  0  0  0  0  0  0  0
   -4.9544   -0.9761    0.8712 H   0  0  0  0  0  0  0  0  0  0  0  0
   -6.5343   -0.6536   -1.0615 H   0  0  0  0  0  0  0  0  0  0  0  0
   -7.3115   -1.5428   -3.2321 H   0  0  0  0  0  0  0  0  0  0  0  0
   -5.8814   -3.1011   -4.5250 H   0  0  0  0  0  0  0  0  0  0  0  0
   -3.6734   -3.7880   -3.6321 H   0  0  0  0  0  0  0  0  0  0  0  0
   -2.8896   -2.9278   -1.4601 H   0  0  0  0  0  0  0  0  0  0  0  0
  1  2  2  0
  2  3  1  0
  3  4  1  0
  4  5  2  0
  5  6  1  0
  6  7  2  0
  7  8  1  0
  8  9  2  0
  9 10  1  0
 10 11  2  0
 11 12  1  0
  2 13  1  0
 13 14  2  0
 14 15  1  0
 15 16  2  0
 16 17  1  0
 17 18  2  0
 17 19  1  0
 19 20  1  0
 20 21  2  0
 21 22  1  0
 22 23  2  0
 23 24  1  0
 24 25  2  0
 12  4  1  0
 12  7  1  0
 13 18  1  0
 20 25  1  0
  3 26  1  0
  8 27  1  0
  9 28  1  0
 10 29  1  0
 11 30  1  0
 14 31  1  0
 15 32  1  0
 16 33  1  0
 18 34  1  0
 19 35  1  0
 21 36  1  0
 22 37  1  0
 23 38  1  0
 24 39  1  0
 25 40  1  0
M  END
$$$$
