
     RDKit          3D

 43 46  0  0  0  0  0  0  0  0999 V2000
   -0.0496   -3.7849    2.2394 C   0  0  0  0  0  0  0  0  0  0  0  0
   -0.4306   -2.3913    2.4349 N   0  0  0  0  0  0  0  0  0  0  0  0
   -1.1251   -1.8792    3.5991 C   0  0  0  0  0  0  0  0  0  0  0  0
   -1.2040   -0.3567    3.3912 C   0  0  0  0  0  0  0  0  0  0  0  0
   -0.9525   -0.0884    1.8773 C   0  0  0  0  0  0  0  0  0  0  0  0
   -2.2987    0.1145    1.1421 C   0  0  0  0  0  0  0  0  0  0  0  0
   -2.0997    0.3418   -0.3651 C   0  0  0  0  0  0  0  0  0  0  0  0
   -0.9423    1.2049   -0.6467 N   0  0  0  0  0  0  0  0  0  0  0  0
   -0.3540    1.9991    0.4412 C   0  0  0  0  0  0  0  0  0  0  0  0
    0.0045    1.1246    1.6585 C   0  0  0  0  0  0  0  0  0  0  0  0
   -0.6501    1.5317   -2.0199 C   0  0  0  0  0  0  0  0  0  0  0  0
   -1.5884    1.5770   -2.8614 O   0  0  0  0  0  0  0  0  0  0  0  0
    0.7226    1.8264   -2.4781 C   0  0  0  0  0  0  0  0  0  0  0  0
    1.0561    2.6440   -3.5530 C   0  0  0  0  0  0  0  0  0  0  0  0
    2.4432    2.6247   -3.6705 C   0  0  0  0  0  0  0  0  0  0  0  0
    2.8891    1.7829   -2.6724 C   0  0  0  0  0  0  0  0  0  0  0  0
    4.1883    1.3874   -2.3729 C   0  0  0  0  0  0  0  0  0  0  0  0
    4.3572    0.4750   -1.3218 C   0  0  0  0  0  0  0  0  0  0  0  0
    3.2317   -0.0068   -0.6285 C   0  0  0  0  0  0  0  0  0  0  0  0
    1.9870    0.4235   -0.9791 N   0  0  0  0  0  0  0  0  0  0  0  0
    1.8535    1.3073   -1.9664 N   0  0  0  0  0  0  0  0  0  0  0  0
   -0.3256   -1.3801    1.4532 C   0  0  0  0  0  0  0  0  0  0  0  0
    0.2195   -1.5751    0.3335 O   0  0  0  0  0  0  0  0  0  0  0  0
    1.0449   -3.8504    2.0663 H   0  0  0  0  0  0  0  0  0  0  0  0
   -0.3086   -4.3861    3.1366 H   0  0  0  0  0  0  0  0  0  0  0  0
   -0.5869   -4.2003    1.3612 H   0  0  0  0  0  0  0  0  0  0  0  0
   -2.1465   -2.3155    3.6426 H   0  0  0  0  0  0  0  0  0  0  0  0
   -0.5659   -2.1291    4.5267 H   0  0  0  0  0  0  0  0  0  0  0  0
   -0.4088    0.1095    4.0143 H   0  0  0  0  0  0  0  0  0  0  0  0
   -2.1823    0.0405    3.7406 H   0  0  0  0  0  0  0  0  0  0  0  0
   -2.9656   -0.7633    1.2948 H   0  0  0  0  0  0  0  0  0  0  0  0
   -2.8169    1.0017    1.5693 H   0  0  0  0  0  0  0  0  0  0  0  0
   -1.9511   -0.6395   -0.8651 H   0  0  0  0  0  0  0  0  0  0  0  0
   -3.0224    0.7993   -0.7837 H   0  0  0  0  0  0  0  0  0  0  0  0
    0.5531    2.5448    0.1056 H   0  0  0  0  0  0  0  0  0  0  0  0
   -1.0936    2.7697    0.7507 H   0  0  0  0  0  0  0  0  0  0  0  0
   -0.0130    1.7957    2.5450 H   0  0  0  0  0  0  0  0  0  0  0  0
    1.0560    0.7752    1.5653 H   0  0  0  0  0  0  0  0  0  0  0  0
    0.3696    3.1940   -4.1831 H   0  0  0  0  0  0  0  0  0  0  0  0
    3.0425    3.1466   -4.4049 H   0  0  0  0  0  0  0  0  0  0  0  0
    5.0361    1.7606   -2.9331 H   0  0  0  0  0  0  0  0  0  0  0  0
    5.3485    0.1356   -1.0511 H   0  0  0  0  0  0  0  0  0  0  0  0
    3.3494   -0.7185    0.1776 H   0  0  0  0  0  0  0  0  0  0  0  0
  1  2  1  0
  2  3  1  0
  3  4  1  0
  4  5  1  0
  5  6  1  0
  6  7  1  0
  7  8  1  0
  8  9  1  0
  9 10  1  0
  8 11  1  0
 11 12  2  0
 11 13  1  0
 13 14  2  0
 14 15  1  0
 15 16  2  0
 16 17  1  0
 17 18  2  0
 18 19  1  0
 19 20  2  0
 20 21  1  0
  5 22  1  0
 22 23  2  0
 22  2  1  0
 10  5  1  0
 21 13  1  0
 21 16  1  0
  1 24  1  0
  1 25  1  0
  1 26  1  0
  3 27  1  0
  3 28  1  0
  4 29  1  0
  4 30  1  0
  6 31  1  0
  6 32  1  0
  7 33  1  0
  7 34  1  0
  9 35  1  0
  9 36  1  0
 10 37  1  0
 10 38  1  0
 14 39  1  0
 15 40  1  0
 17 41  1  0
 18 42  1  0
 19 43  1  0
M  END
$$$$
