
     RDKit          3D

 49 51  0  0  0  0  0  0  0  0999 V2000
   -2.7135   -1.6719   -1.7228 C   0  0  0  0  0  0  0  0  0  0  0  0
   -3.0385   -0.9114   -0.4309 C   0  0  0  0  0  0  0  0  0  0  0  0
   -2.5880   -1.6359    0.6886 O   0  0  0  0  0  0  0  0  0  0  0  0
   -2.3398   -0.6955    1.7119 C   0  0  0  0  0  0  0  0  0  0  0  0
   -2.5422    0.7132    1.1709 C   0  0  0  0  0  0  0  0  0  0  0  0
   -2.4651    0.5191   -0.3305 C   0  0  0  0  0  0  0  0  0  0  0  0
   -3.3406    1.5268   -1.1056 C   0  0  0  0  0  0  0  0  0  0  0  0
   -1.0561    0.5925   -0.7784 N   0  0  0  0  0  0  0  0  0  0  0  0
   -0.2219    1.7611   -0.6433 C   0  0  0  0  0  0  0  0  0  0  0  0
   -0.7166    2.8550   -0.2589 O   0  0  0  0  0  0  0  0  0  0  0  0
    1.2675    1.6934   -0.9035 C   0  0  0  0  0  0  0  0  0  0  0  0
    1.5971    1.1135   -2.3095 C   0  0  0  0  0  0  0  0  0  0  0  0
    2.5274   -0.1040   -2.2546 C   0  0  0  0  0  0  0  0  0  0  0  0
    2.0671   -1.0391   -1.2214 N   0  0  0  0  0  0  0  0  0  0  0  0
    1.8902   -0.5616    0.1588 C   0  0  0  0  0  0  0  0  0  0  0  0
    1.9969    0.9691    0.2518 C   0  0  0  0  0  0  0  0  0  0  0  0
    1.7810   -2.4153   -1.5422 C   0  0  0  0  0  0  0  0  0  0  0  0
    2.3135   -3.4491   -0.7522 C   0  0  0  0  0  0  0  0  0  0  0  0
    2.0266   -4.7855   -1.0440 C   0  0  0  0  0  0  0  0  0  0  0  0
    1.1995   -5.1060   -2.1258 C   0  0  0  0  0  0  0  0  0  0  0  0
    0.9008   -6.4824   -2.4230 C   0  0  0  0  0  0  0  0  0  0  0  0
    0.6605   -7.5890   -2.6619 N   0  0  0  0  0  0  0  0  0  0  0  0
    0.6597   -4.0847   -2.9152 C   0  0  0  0  0  0  0  0  0  0  0  0
    0.9466   -2.7462   -2.6285 C   0  0  0  0  0  0  0  0  0  0  0  0
    0.3753   -1.7776   -3.3869 F   0  0  0  0  0  0  0  0  0  0  0  0
   -2.7957   -1.0059   -2.6069 H   0  0  0  0  0  0  0  0  0  0  0  0
   -1.6989   -2.1158   -1.6802 H   0  0  0  0  0  0  0  0  0  0  0  0
   -3.4315   -2.5097   -1.8493 H   0  0  0  0  0  0  0  0  0  0  0  0
   -4.1508   -0.8623   -0.3640 H   0  0  0  0  0  0  0  0  0  0  0  0
   -1.2914   -0.8170    2.0598 H   0  0  0  0  0  0  0  0  0  0  0  0
   -3.0206   -0.8860    2.5691 H   0  0  0  0  0  0  0  0  0  0  0  0
   -3.5503    1.0783    1.4718 H   0  0  0  0  0  0  0  0  0  0  0  0
   -1.7783    1.4113    1.5734 H   0  0  0  0  0  0  0  0  0  0  0  0
   -4.4173    1.3875   -0.8696 H   0  0  0  0  0  0  0  0  0  0  0  0
   -3.0828    2.5718   -0.8420 H   0  0  0  0  0  0  0  0  0  0  0  0
   -3.2002    1.3936   -2.1989 H   0  0  0  0  0  0  0  0  0  0  0  0
   -0.5995   -0.2610   -1.1600 H   0  0  0  0  0  0  0  0  0  0  0  0
    1.6449    2.7416   -0.8933 H   0  0  0  0  0  0  0  0  0  0  0  0
    2.0880    1.8975   -2.9267 H   0  0  0  0  0  0  0  0  0  0  0  0
    0.6715    0.8303   -2.8555 H   0  0  0  0  0  0  0  0  0  0  0  0
    3.5588    0.2287   -2.0071 H   0  0  0  0  0  0  0  0  0  0  0  0
    2.5778   -0.5886   -3.2532 H   0  0  0  0  0  0  0  0  0  0  0  0
    2.6638   -1.0127    0.8152 H   0  0  0  0  0  0  0  0  0  0  0  0
    0.8969   -0.8821    0.5388 H   0  0  0  0  0  0  0  0  0  0  0  0
    1.6043    1.3115    1.2347 H   0  0  0  0  0  0  0  0  0  0  0  0
    3.0733    1.2486    0.2214 H   0  0  0  0  0  0  0  0  0  0  0  0
    2.9634   -3.2239    0.0828 H   0  0  0  0  0  0  0  0  0  0  0  0
    2.4502   -5.5683   -0.4262 H   0  0  0  0  0  0  0  0  0  0  0  0
    0.0097   -4.3234   -3.7486 H   0  0  0  0  0  0  0  0  0  0  0  0
  1  2  1  0
  2  3  1  0
  3  4  1  0
  4  5  1  0
  5  6  1  0
  6  7  1  0
  6  8  1  0
  8  9  1  0
  9 10  2  0
  9 11  1  0
 11 12  1  0
 12 13  1  0
 13 14  1  0
 14 15  1  0
 15 16  1  0
 14 17  1  0
 17 18  2  0
 18 19  1  0
 19 20  2  0
 20 21  1  0
 21 22  3  0
 20 23  1  0
 23 24  2  0
 24 25  1  0
  6  2  1  0
 16 11  1  0
 17 24  1  0
  1 26  1  0
  1 27  1  0
  1 28  1  0
  2 29  1  0
  4 30  1  0
  4 31  1  0
  5 32  1  0
  5 33  1  0
  7 34  1  0
  7 35  1  0
  7 36  1  0
  8 37  1  0
 11 38  1  0
 12 39  1  0
 12 40  1  0
 13 41  1  0
 13 42  1  0
 15 43  1  0
 15 44  1  0
 16 45  1  0
 16 46  1  0
 18 47  1  0
 19 48  1  0
 23 49  1  0
M  END
$$$$
