
     RDKit          3D

 30 32  0  0  0  0  0  0  0  0999 V2000
   -0.3772    0.5437    2.4247 N   0  0  0  0  0  0  0  0  0  0  0  0
    0.4374    1.0977    1.8175 C   0  0  0  0  0  0  0  0  0  0  0  0
    1.4495    1.7857    1.0598 C   0  0  0  0  0  0  0  0  0  0  0  0
    2.8122    1.7135    1.3757 C   0  0  0  0  0  0  0  0  0  0  0  0
    3.6198    2.4434    0.5118 C   0  0  0  0  0  0  0  0  0  0  0  0
    2.6387    3.1751   -0.6435 S   0  0  0  0  0  0  0  0  0  0  0  0
    1.1846    2.5747   -0.0544 C   0  0  0  0  0  0  0  0  0  0  0  0
   -0.3908    2.8795   -0.7733 S   0  0  0  0  0  0  0  0  0  0  0  0
   -1.1570    3.8128    0.1206 O   0  0  0  0  0  0  0  0  0  0  0  0
   -0.2304    3.5150   -2.1257 O   0  0  0  0  0  0  0  0  0  0  0  0
   -1.2650    1.3908   -0.9388 N   0  0  0  0  0  0  0  0  0  0  0  0
   -0.6510    0.1733   -1.3930 C   0  0  0  0  0  0  0  0  0  0  0  0
    0.4727    0.1844   -2.2492 C   0  0  0  0  0  0  0  0  0  0  0  0
    1.0606   -1.0207   -2.6777 C   0  0  0  0  0  0  0  0  0  0  0  0
    0.5370   -2.2538   -2.2636 C   0  0  0  0  0  0  0  0  0  0  0  0
   -0.5762   -2.2562   -1.4255 C   0  0  0  0  0  0  0  0  0  0  0  0
   -1.2809   -3.4386   -0.8433 C   0  0  0  0  0  0  0  0  0  0  0  0
   -2.3253   -2.7372   -0.0304 C   0  0  0  0  0  0  0  0  0  0  0  0
   -3.1827   -3.3269    0.6780 O   0  0  0  0  0  0  0  0  0  0  0  0
   -2.2496   -1.3199   -0.1310 N   0  0  0  0  0  0  0  0  0  0  0  0
   -1.1579   -1.0759   -1.0034 C   0  0  0  0  0  0  0  0  0  0  0  0
    3.2042    1.1441    2.2086 H   0  0  0  0  0  0  0  0  0  0  0  0
    4.6966    2.5236    0.5721 H   0  0  0  0  0  0  0  0  0  0  0  0
   -2.2402    1.3724   -0.5688 H   0  0  0  0  0  0  0  0  0  0  0  0
    0.8936    1.1169   -2.5979 H   0  0  0  0  0  0  0  0  0  0  0  0
    1.9223   -0.9957   -3.3320 H   0  0  0  0  0  0  0  0  0  0  0  0
    0.9897   -3.1824   -2.5861 H   0  0  0  0  0  0  0  0  0  0  0  0
   -1.7444   -4.0590   -1.6391 H   0  0  0  0  0  0  0  0  0  0  0  0
   -0.6006   -4.0289   -0.1939 H   0  0  0  0  0  0  0  0  0  0  0  0
   -2.8404   -0.6261    0.3775 H   0  0  0  0  0  0  0  0  0  0  0  0
  1  2  3  0
  2  3  1  0
  3  4  1  0
  4  5  2  0
  5  6  1  0
  6  7  1  0
  7  8  1  0
  8  9  2  0
  8 10  2  0
  8 11  1  0
 11 12  1  0
 12 13  2  0
 13 14  1  0
 14 15  2  0
 15 16  1  0
 16 17  1  0
 17 18  1  0
 18 19  2  0
 18 20  1  0
 20 21  1  0
  3  7  2  0
 12 21  1  0
 21 16  2  0
  4 22  1  0
  5 23  1  0
 11 24  1  0
 13 25  1  0
 14 26  1  0
 15 27  1  0
 17 28  1  0
 17 29  1  0
 20 30  1  0
M  END
$$$$
