
     RDKit          3D

 46 49  0  0  0  0  0  0  0  0999 V2000
    0.8004    5.9478    0.9579 C   0  0  0  0  0  0  0  0  0  0  0  0
    2.0066    5.4037    0.1966 C   0  0  0  0  0  0  0  0  0  0  0  0
    1.9180    3.8862   -0.0467 C   0  0  0  0  0  0  0  0  0  0  0  0
    3.1247    3.3859    0.6875 C   0  0  0  0  0  0  0  0  0  0  0  0
    3.7819    4.3396    1.2486 N   0  0  0  0  0  0  0  0  0  0  0  0
    3.1803    5.5404    0.9805 O   0  0  0  0  0  0  0  0  0  0  0  0
    3.5091    1.9415    0.8969 C   0  0  0  0  0  0  0  0  0  0  0  0
    2.5838    1.2127    1.8239 C   0  0  0  0  0  0  0  0  0  0  0  0
    2.0754    0.2603    0.8203 N   0  0  0  0  0  0  0  0  0  0  0  0
    2.9841    0.9573   -0.1072 C   0  0  0  0  0  0  0  0  0  0  0  0
    1.1400   -0.8143    0.7712 C   0  0  0  0  0  0  0  0  0  0  0  0
    0.5188   -1.1377    1.8173 O   0  0  0  0  0  0  0  0  0  0  0  0
    0.9410   -1.5283   -0.4576 N   0  0  0  0  0  0  0  0  0  0  0  0
   -0.0838   -2.5077   -0.6815 C   0  0  0  0  0  0  0  0  0  0  0  0
   -1.2262   -2.7075    0.0764 C   0  0  0  0  0  0  0  0  0  0  0  0
   -1.9002   -3.7126   -0.5921 C   0  0  0  0  0  0  0  0  0  0  0  0
   -3.1981   -4.2879   -0.1739 C   0  0  0  0  0  0  0  0  0  0  0  0
   -3.4354   -4.5657    1.1837 C   0  0  0  0  0  0  0  0  0  0  0  0
   -4.6633   -5.0949    1.5925 C   0  0  0  0  0  0  0  0  0  0  0  0
   -5.6684   -5.3396    0.6530 C   0  0  0  0  0  0  0  0  0  0  0  0
   -6.8589   -5.8521    1.0517 F   0  0  0  0  0  0  0  0  0  0  0  0
   -5.4485   -5.0490   -0.6957 C   0  0  0  0  0  0  0  0  0  0  0  0
   -4.2213   -4.5210   -1.1090 C   0  0  0  0  0  0  0  0  0  0  0  0
   -1.1707   -4.0808   -1.6718 N   0  0  0  0  0  0  0  0  0  0  0  0
   -1.4780   -5.1264   -2.6426 C   0  0  0  0  0  0  0  0  0  0  0  0
   -0.0752   -3.3414   -1.7388 N   0  0  0  0  0  0  0  0  0  0  0  0
   -0.1240    5.7980    0.3609 H   0  0  0  0  0  0  0  0  0  0  0  0
    0.6923    5.4303    1.9355 H   0  0  0  0  0  0  0  0  0  0  0  0
    0.9338    7.0346    1.1405 H   0  0  0  0  0  0  0  0  0  0  0  0
    2.1318    5.9512   -0.7631 H   0  0  0  0  0  0  0  0  0  0  0  0
    2.0014    3.6658   -1.1313 H   0  0  0  0  0  0  0  0  0  0  0  0
    0.9939    3.4330    0.3725 H   0  0  0  0  0  0  0  0  0  0  0  0
    4.5833    1.7866    1.1394 H   0  0  0  0  0  0  0  0  0  0  0  0
    3.1306    0.6771    2.6316 H   0  0  0  0  0  0  0  0  0  0  0  0
    1.7549    1.8352    2.2305 H   0  0  0  0  0  0  0  0  0  0  0  0
    3.7773    0.2656   -0.4682 H   0  0  0  0  0  0  0  0  0  0  0  0
    2.4191    1.3978   -0.9550 H   0  0  0  0  0  0  0  0  0  0  0  0
    1.6113   -1.3485   -1.2380 H   0  0  0  0  0  0  0  0  0  0  0  0
   -1.5557   -2.1779    0.9593 H   0  0  0  0  0  0  0  0  0  0  0  0
   -2.6659   -4.3853    1.9236 H   0  0  0  0  0  0  0  0  0  0  0  0
   -4.8345   -5.3147    2.6386 H   0  0  0  0  0  0  0  0  0  0  0  0
   -6.2318   -5.2251   -1.4221 H   0  0  0  0  0  0  0  0  0  0  0  0
   -4.0855   -4.2706   -2.1515 H   0  0  0  0  0  0  0  0  0  0  0  0
   -0.5418   -5.4903   -3.1151 H   0  0  0  0  0  0  0  0  0  0  0  0
   -2.1383   -4.7200   -3.4358 H   0  0  0  0  0  0  0  0  0  0  0  0
   -1.9697   -5.9871   -2.1430 H   0  0  0  0  0  0  0  0  0  0  0  0
  1  2  1  0
  2  3  1  0
  3  4  1  0
  4  5  2  0
  5  6  1  0
  4  7  1  0
  7  8  1  0
  8  9  1  0
  9 10  1  0
  9 11  1  0
 11 12  2  0
 11 13  1  0
 13 14  1  0
 14 15  1  0
 15 16  2  0
 16 17  1  0
 17 18  2  0
 18 19  1  0
 19 20  2  0
 20 21  1  0
 20 22  1  0
 22 23  2  0
 16 24  1  0
 24 25  1  0
 24 26  1  0
  6  2  1  0
 10  7  1  0
 14 26  2  0
 17 23  1  0
  1 27  1  0
  1 28  1  0
  1 29  1  0
  2 30  1  0
  3 31  1  0
  3 32  1  0
  7 33  1  0
  8 34  1  0
  8 35  1  0
 10 36  1  0
 10 37  1  0
 13 38  1  0
 15 39  1  0
 18 40  1  0
 19 41  1  0
 22 42  1  0
 23 43  1  0
 25 44  1  0
 25 45  1  0
 25 46  1  0
M  END
$$$$
