
     RDKit          3D

 40 42  0  0  0  0  0  0  0  0999 V2000
   -2.1925    1.9850   -0.0049 O   0  0  0  0  0  0  0  0  0  0  0  0
   -1.3186    1.0801    0.0877 C   0  0  0  0  0  0  0  0  0  0  0  0
   -0.0120    1.3937    0.6069 N   0  0  0  0  0  0  0  0  0  0  0  0
    0.3518    2.6807    1.1349 C   0  0  0  0  0  0  0  0  0  0  0  0
   -0.5380    3.4242    1.9294 C   0  0  0  0  0  0  0  0  0  0  0  0
   -0.1505    4.6601    2.4515 C   0  0  0  0  0  0  0  0  0  0  0  0
    1.1294    5.1584    2.1996 C   0  0  0  0  0  0  0  0  0  0  0  0
    2.0396    4.4225    1.4329 C   0  0  0  0  0  0  0  0  0  0  0  0
    1.6454    3.1759    0.9071 C   0  0  0  0  0  0  0  0  0  0  0  0
    3.3169    4.9633    1.2181 O   0  0  0  0  0  0  0  0  0  0  0  0
    4.3575    4.3234    0.4849 C   0  0  0  0  0  0  0  0  0  0  0  0
    4.7500    3.1668    1.1340 F   0  0  0  0  0  0  0  0  0  0  0  0
    5.4393    5.1779    0.3972 F   0  0  0  0  0  0  0  0  0  0  0  0
   -1.6614   -0.2939   -0.3527 C   0  0  0  0  0  0  0  0  0  0  0  0
   -0.6865   -1.1606   -0.8789 C   0  0  0  0  0  0  0  0  0  0  0  0
   -1.0324   -2.4508   -1.2918 C   0  0  0  0  0  0  0  0  0  0  0  0
   -2.3578   -2.9028   -1.1798 C   0  0  0  0  0  0  0  0  0  0  0  0
   -3.3371   -2.0273   -0.6925 C   0  0  0  0  0  0  0  0  0  0  0  0
   -2.9934   -0.7372   -0.2796 C   0  0  0  0  0  0  0  0  0  0  0  0
   -2.7416   -4.2164   -1.6206 N   0  0  0  0  0  0  0  0  0  0  0  0
   -1.9229   -5.3862   -1.4795 C   0  0  0  0  0  0  0  0  0  0  0  0
   -2.2762   -6.5330   -2.1208 N   0  0  0  0  0  0  0  0  0  0  0  0
   -1.5404   -7.6671   -1.9865 C   0  0  0  0  0  0  0  0  0  0  0  0
   -0.4081   -7.6690   -1.1735 C   0  0  0  0  0  0  0  0  0  0  0  0
   -0.0649   -6.4914   -0.5117 C   0  0  0  0  0  0  0  0  0  0  0  0
   -0.8266   -5.3783   -0.6714 N   0  0  0  0  0  0  0  0  0  0  0  0
    0.7418    0.6736    0.5600 H   0  0  0  0  0  0  0  0  0  0  0  0
   -1.5205    3.0407    2.1699 H   0  0  0  0  0  0  0  0  0  0  0  0
   -0.8407    5.2291    3.0610 H   0  0  0  0  0  0  0  0  0  0  0  0
    1.4198    6.1171    2.6104 H   0  0  0  0  0  0  0  0  0  0  0  0
    2.3300    2.5882    0.3108 H   0  0  0  0  0  0  0  0  0  0  0  0
    4.0112    4.0827   -0.5424 H   0  0  0  0  0  0  0  0  0  0  0  0
    0.3369   -0.8377   -1.0111 H   0  0  0  0  0  0  0  0  0  0  0  0
   -0.2692   -3.0812   -1.7285 H   0  0  0  0  0  0  0  0  0  0  0  0
   -4.3683   -2.3503   -0.6222 H   0  0  0  0  0  0  0  0  0  0  0  0
   -3.7692   -0.0883    0.1082 H   0  0  0  0  0  0  0  0  0  0  0  0
   -3.7089   -4.3472   -1.9948 H   0  0  0  0  0  0  0  0  0  0  0  0
   -1.8366   -8.5669   -2.5088 H   0  0  0  0  0  0  0  0  0  0  0  0
    0.1878   -8.5647   -1.0556 H   0  0  0  0  0  0  0  0  0  0  0  0
    0.8046   -6.4619    0.1313 H   0  0  0  0  0  0  0  0  0  0  0  0
  1  2  2  0
  2  3  1  0
  3  4  1  0
  4  5  2  0
  5  6  1  0
  6  7  2  0
  7  8  1  0
  8  9  2  0
  8 10  1  0
 10 11  1  0
 11 12  1  0
 11 13  1  0
  2 14  1  0
 14 15  2  0
 15 16  1  0
 16 17  2  0
 17 18  1  0
 18 19  2  0
 17 20  1  0
 20 21  1  0
 21 22  2  0
 22 23  1  0
 23 24  2  0
 24 25  1  0
 25 26  2  0
  4  9  1  0
 14 19  1  0
 21 26  1  0
  3 27  1  0
  5 28  1  0
  6 29  1  0
  7 30  1  0
  9 31  1  0
 11 32  1  0
 15 33  1  0
 16 34  1  0
 18 35  1  0
 19 36  1  0
 20 37  1  0
 23 38  1  0
 24 39  1  0
 25 40  1  0
M  END
$$$$
