
     RDKit          3D

 40 42  0  0  0  0  0  0  0  0999 V2000
   -1.5621   -2.5337   -1.7550 C   0  0  0  0  0  0  0  0  0  0  0  0
   -1.3940   -2.1591   -3.2343 C   0  0  0  0  0  0  0  0  0  0  0  0
   -0.0369   -2.6507   -3.7829 C   0  0  0  0  0  0  0  0  0  0  0  0
    1.1314   -1.9894   -3.1079 C   0  0  0  0  0  0  0  0  0  0  0  0
    1.5128   -0.8537   -3.5012 O   0  0  0  0  0  0  0  0  0  0  0  0
    1.7816   -2.6279   -2.0000 N   0  0  0  0  0  0  0  0  0  0  0  0
    2.7397   -1.9285   -1.1481 C   0  0  0  0  0  0  0  0  0  0  0  0
    2.0153   -0.9710   -0.2420 C   0  0  0  0  0  0  0  0  0  0  0  0
    1.2998   -1.4558    0.8615 C   0  0  0  0  0  0  0  0  0  0  0  0
    0.5786   -0.5802    1.6782 C   0  0  0  0  0  0  0  0  0  0  0  0
    0.5546    0.8006    1.4012 C   0  0  0  0  0  0  0  0  0  0  0  0
    1.2746    1.2791    0.2914 C   0  0  0  0  0  0  0  0  0  0  0  0
    1.9938    0.4018   -0.5246 C   0  0  0  0  0  0  0  0  0  0  0  0
   -0.1866    1.7208    2.2298 N   0  0  0  0  0  0  0  0  0  0  0  0
   -1.0376    1.4376    3.2363 C   0  0  0  0  0  0  0  0  0  0  0  0
   -1.5498    2.5602    3.7764 N   0  0  0  0  0  0  0  0  0  0  0  0
   -0.9641    3.5305    3.0439 C   0  0  0  0  0  0  0  0  0  0  0  0
   -0.1383    3.0356    2.1035 N   0  0  0  0  0  0  0  0  0  0  0  0
   -1.4685   -0.7531   -3.3595 O   0  0  0  0  0  0  0  0  0  0  0  0
   -2.6375   -0.4905   -4.0667 C   0  0  0  0  0  0  0  0  0  0  0  0
   -3.0417   -1.7826   -4.7035 C   0  0  0  0  0  0  0  0  0  0  0  0
   -2.4233   -2.7890   -3.9682 O   0  0  0  0  0  0  0  0  0  0  0  0
   -2.5808   -2.2558   -1.4100 H   0  0  0  0  0  0  0  0  0  0  0  0
   -0.8276   -1.9904   -1.1248 H   0  0  0  0  0  0  0  0  0  0  0  0
   -1.4275   -3.6271   -1.6112 H   0  0  0  0  0  0  0  0  0  0  0  0
    0.0389   -3.7541   -3.6695 H   0  0  0  0  0  0  0  0  0  0  0  0
    0.0135   -2.4340   -4.8724 H   0  0  0  0  0  0  0  0  0  0  0  0
    1.5080   -3.6029   -1.7419 H   0  0  0  0  0  0  0  0  0  0  0  0
    3.4947   -1.4050   -1.7744 H   0  0  0  0  0  0  0  0  0  0  0  0
    3.2898   -2.6701   -0.5290 H   0  0  0  0  0  0  0  0  0  0  0  0
    1.2941   -2.5157    1.0849 H   0  0  0  0  0  0  0  0  0  0  0  0
    0.0475   -0.9921    2.5236 H   0  0  0  0  0  0  0  0  0  0  0  0
    1.2740    2.3338    0.0482 H   0  0  0  0  0  0  0  0  0  0  0  0
    2.5293    0.7945   -1.3800 H   0  0  0  0  0  0  0  0  0  0  0  0
   -1.2995    0.4453    3.5749 H   0  0  0  0  0  0  0  0  0  0  0  0
   -1.1401    4.5871    3.1942 H   0  0  0  0  0  0  0  0  0  0  0  0
   -2.4518    0.2917   -4.8333 H   0  0  0  0  0  0  0  0  0  0  0  0
   -3.4218   -0.1403   -3.3605 H   0  0  0  0  0  0  0  0  0  0  0  0
   -2.6874   -1.8274   -5.7566 H   0  0  0  0  0  0  0  0  0  0  0  0
   -4.1445   -1.9132   -4.6767 H   0  0  0  0  0  0  0  0  0  0  0  0
  1  2  1  0
  2  3  1  0
  3  4  1  0
  4  5  2  0
  4  6  1  0
  6  7  1  0
  7  8  1  0
  8  9  2  0
  9 10  1  0
 10 11  2  0
 11 12  1  0
 12 13  2  0
 11 14  1  0
 14 15  1  0
 15 16  2  0
 16 17  1  0
 17 18  2  0
  2 19  1  0
 19 20  1  0
 20 21  1  0
 21 22  1  0
 22  2  1  0
  8 13  1  0
 18 14  1  0
  1 23  1  0
  1 24  1  0
  1 25  1  0
  3 26  1  0
  3 27  1  0
  6 28  1  0
  7 29  1  0
  7 30  1  0
  9 31  1  0
 10 32  1  0
 12 33  1  0
 13 34  1  0
 15 35  1  0
 17 36  1  0
 20 37  1  0
 20 38  1  0
 21 39  1  0
 21 40  1  0
M  END
$$$$
