
     RDKit          3D

 47 48  0  0  0  0  0  0  0  0999 V2000
   -4.0795   -0.1367   -2.2139 C   0  0  0  0  0  0  0  0  0  0  0  0
   -2.7120   -0.1386   -1.5989 C   0  0  0  0  0  0  0  0  0  0  0  0
   -2.0123   -1.2914   -1.3014 C   0  0  0  0  0  0  0  0  0  0  0  0
   -0.8360   -0.8470   -0.7371 C   0  0  0  0  0  0  0  0  0  0  0  0
   -0.8437    0.4966   -0.6824 N   0  0  0  0  0  0  0  0  0  0  0  0
   -1.9865    0.9397   -1.1913 N   0  0  0  0  0  0  0  0  0  0  0  0
   -2.2752    2.3886   -1.3438 C   0  0  0  0  0  0  0  0  0  0  0  0
   -3.7223    2.7241   -0.9203 C   0  0  0  0  0  0  0  0  0  0  0  0
   -2.0352    2.8098   -2.8049 C   0  0  0  0  0  0  0  0  0  0  0  0
   -1.3226    3.2106   -0.4414 C   0  0  0  0  0  0  0  0  0  0  0  0
    0.2506   -1.7035   -0.2203 C   0  0  0  0  0  0  0  0  0  0  0  0
    0.0408   -2.9427   -0.1125 O   0  0  0  0  0  0  0  0  0  0  0  0
    1.5255   -1.1643    0.1875 N   0  0  0  0  0  0  0  0  0  0  0  0
    2.0410    0.1024   -0.3367 C   0  0  0  0  0  0  0  0  0  0  0  0
    2.3180   -1.8823    1.1456 C   0  0  0  0  0  0  0  0  0  0  0  0
    3.1417   -2.9217    0.6969 C   0  0  0  0  0  0  0  0  0  0  0  0
    3.9461   -3.6214    1.5925 C   0  0  0  0  0  0  0  0  0  0  0  0
    3.9494   -3.2803    2.9438 C   0  0  0  0  0  0  0  0  0  0  0  0
    3.1423   -2.2334    3.4199 C   0  0  0  0  0  0  0  0  0  0  0  0
    3.1852   -1.8922    4.8871 C   0  0  0  0  0  0  0  0  0  0  0  0
    2.2874   -1.5442    2.5204 C   0  0  0  0  0  0  0  0  0  0  0  0
    1.4007   -0.4203    3.0060 C   0  0  0  0  0  0  0  0  0  0  0  0
   -4.3255   -1.1479   -2.6019 H   0  0  0  0  0  0  0  0  0  0  0  0
   -4.8364    0.1266   -1.4470 H   0  0  0  0  0  0  0  0  0  0  0  0
   -4.1305    0.5656   -3.0673 H   0  0  0  0  0  0  0  0  0  0  0  0
   -2.3191   -2.3152   -1.4737 H   0  0  0  0  0  0  0  0  0  0  0  0
   -4.4583    2.4384   -1.6964 H   0  0  0  0  0  0  0  0  0  0  0  0
   -3.8485    3.8182   -0.7695 H   0  0  0  0  0  0  0  0  0  0  0  0
   -3.9747    2.2104    0.0321 H   0  0  0  0  0  0  0  0  0  0  0  0
   -0.9897    2.5807   -3.1040 H   0  0  0  0  0  0  0  0  0  0  0  0
   -2.7129    2.2728   -3.4970 H   0  0  0  0  0  0  0  0  0  0  0  0
   -2.2083    3.9004   -2.9320 H   0  0  0  0  0  0  0  0  0  0  0  0
   -0.2616    3.0432   -0.7276 H   0  0  0  0  0  0  0  0  0  0  0  0
   -1.4498    2.9167    0.6231 H   0  0  0  0  0  0  0  0  0  0  0  0
   -1.5267    4.2998   -0.5310 H   0  0  0  0  0  0  0  0  0  0  0  0
    1.7699    0.2156   -1.4078 H   0  0  0  0  0  0  0  0  0  0  0  0
    3.1496    0.1317   -0.2645 H   0  0  0  0  0  0  0  0  0  0  0  0
    1.6271    0.9498    0.2484 H   0  0  0  0  0  0  0  0  0  0  0  0
    3.1601   -3.1838   -0.3537 H   0  0  0  0  0  0  0  0  0  0  0  0
    4.5773   -4.4255    1.2367 H   0  0  0  0  0  0  0  0  0  0  0  0
    4.5904   -3.8328    3.6199 H   0  0  0  0  0  0  0  0  0  0  0  0
    3.2954   -0.7959    5.0234 H   0  0  0  0  0  0  0  0  0  0  0  0
    4.0447   -2.3798    5.3947 H   0  0  0  0  0  0  0  0  0  0  0  0
    2.2501   -2.2350    5.3773 H   0  0  0  0  0  0  0  0  0  0  0  0
    0.5375   -0.2530    2.3297 H   0  0  0  0  0  0  0  0  0  0  0  0
    0.9731   -0.6530    4.0029 H   0  0  0  0  0  0  0  0  0  0  0  0
    1.9930    0.5161    3.0706 H   0  0  0  0  0  0  0  0  0  0  0  0
  1  2  1  0
  2  3  2  0
  3  4  1  0
  4  5  2  0
  5  6  1  0
  6  7  1  0
  7  8  1  0
  7  9  1  0
  7 10  1  0
  4 11  1  0
 11 12  2  0
 11 13  1  0
 13 14  1  0
 13 15  1  0
 15 16  2  0
 16 17  1  0
 17 18  2  0
 18 19  1  0
 19 20  1  0
 19 21  2  0
 21 22  1  0
  6  2  1  0
 15 21  1  0
  1 23  1  0
  1 24  1  0
  1 25  1  0
  3 26  1  0
  8 27  1  0
  8 28  1  0
  8 29  1  0
  9 30  1  0
  9 31  1  0
  9 32  1  0
 10 33  1  0
 10 34  1  0
 10 35  1  0
 14 36  1  0
 14 37  1  0
 14 38  1  0
 16 39  1  0
 17 40  1  0
 18 41  1  0
 20 42  1  0
 20 43  1  0
 20 44  1  0
 22 45  1  0
 22 46  1  0
 22 47  1  0
M  END
$$$$
