
     RDKit          3D

 41 44  0  0  0  0  0  0  0  0999 V2000
   -1.5922   -2.2851   -0.7107 O   0  0  0  0  0  0  0  0  0  0  0  0
   -1.4547   -2.6925   -1.8970 C   0  0  0  0  0  0  0  0  0  0  0  0
   -0.1373   -2.9479   -2.4137 N   0  0  0  0  0  0  0  0  0  0  0  0
    1.0589   -2.3652   -1.8676 C   0  0  0  0  0  0  0  0  0  0  0  0
    2.2699   -3.0656   -1.9578 C   0  0  0  0  0  0  0  0  0  0  0  0
    3.4473   -2.5076   -1.4564 C   0  0  0  0  0  0  0  0  0  0  0  0
    3.4292   -1.2419   -0.8667 C   0  0  0  0  0  0  0  0  0  0  0  0
    2.2294   -0.5175   -0.7757 C   0  0  0  0  0  0  0  0  0  0  0  0
    1.0505   -1.0800   -1.2955 C   0  0  0  0  0  0  0  0  0  0  0  0
    2.2216    0.8290   -0.1596 C   0  0  0  0  0  0  0  0  0  0  0  0
    3.2579    1.6976   -0.2025 N   0  0  0  0  0  0  0  0  0  0  0  0
    2.9494    2.8053    0.4598 N   0  0  0  0  0  0  0  0  0  0  0  0
    1.6968    2.6477    0.9245 C   0  0  0  0  0  0  0  0  0  0  0  0
    0.9454    3.5804    1.8144 C   0  0  0  0  0  0  0  0  0  0  0  0
   -0.5156    3.0900    1.9287 C   0  0  0  0  0  0  0  0  0  0  0  0
   -0.5754    1.6853    2.1607 O   0  0  0  0  0  0  0  0  0  0  0  0
   -0.1483    0.9606    1.0117 C   0  0  0  0  0  0  0  0  0  0  0  0
    1.2128    1.4196    0.5800 C   0  0  0  0  0  0  0  0  0  0  0  0
   -2.6590   -2.9476   -2.7240 C   0  0  0  0  0  0  0  0  0  0  0  0
   -2.5752   -3.0459   -4.1243 C   0  0  0  0  0  0  0  0  0  0  0  0
   -3.6928   -3.2714   -4.8651 N   0  0  0  0  0  0  0  0  0  0  0  0
   -4.9174   -3.4072   -4.2930 C   0  0  0  0  0  0  0  0  0  0  0  0
   -5.0561   -3.3080   -2.9051 C   0  0  0  0  0  0  0  0  0  0  0  0
   -6.3035   -3.4393   -2.2992 O   0  0  0  0  0  0  0  0  0  0  0  0
   -3.9230   -3.0740   -2.1226 C   0  0  0  0  0  0  0  0  0  0  0  0
   -0.0313   -3.6833   -3.1484 H   0  0  0  0  0  0  0  0  0  0  0  0
    2.2991   -4.0484   -2.4113 H   0  0  0  0  0  0  0  0  0  0  0  0
    4.3764   -3.0590   -1.5224 H   0  0  0  0  0  0  0  0  0  0  0  0
    4.3515   -0.8359   -0.4711 H   0  0  0  0  0  0  0  0  0  0  0  0
    0.1376   -0.5027   -1.2987 H   0  0  0  0  0  0  0  0  0  0  0  0
    4.1717    1.5487   -0.6847 H   0  0  0  0  0  0  0  0  0  0  0  0
    1.4188    3.5794    2.8193 H   0  0  0  0  0  0  0  0  0  0  0  0
    0.9720    4.6097    1.3981 H   0  0  0  0  0  0  0  0  0  0  0  0
   -1.0008    3.6117    2.7802 H   0  0  0  0  0  0  0  0  0  0  0  0
   -1.0866    3.3643    1.0119 H   0  0  0  0  0  0  0  0  0  0  0  0
   -0.8766    1.0930    0.1821 H   0  0  0  0  0  0  0  0  0  0  0  0
   -0.1045   -0.1179    1.2700 H   0  0  0  0  0  0  0  0  0  0  0  0
   -1.6302   -2.9252   -4.6358 H   0  0  0  0  0  0  0  0  0  0  0  0
   -5.7818   -3.5875   -4.9182 H   0  0  0  0  0  0  0  0  0  0  0  0
   -7.1409   -3.6093   -2.8440 H   0  0  0  0  0  0  0  0  0  0  0  0
   -4.0322   -3.0005   -1.0475 H   0  0  0  0  0  0  0  0  0  0  0  0
  1  2  2  0
  2  3  1  0
  3  4  1  0
  4  5  2  0
  5  6  1  0
  6  7  2  0
  7  8  1  0
  8  9  2  0
  8 10  1  0
 10 11  1  0
 11 12  1  0
 12 13  2  0
 13 14  1  0
 14 15  1  0
 15 16  1  0
 16 17  1  0
 17 18  1  0
  2 19  1  0
 19 20  2  0
 20 21  1  0
 21 22  2  0
 22 23  1  0
 23 24  1  0
 23 25  2  0
  4  9  1  0
 10 18  2  0
 18 13  1  0
 25 19  1  0
  3 26  1  0
  5 27  1  0
  6 28  1  0
  7 29  1  0
  9 30  1  0
 11 31  1  0
 14 32  1  0
 14 33  1  0
 15 34  1  0
 15 35  1  0
 17 36  1  0
 17 37  1  0
 20 38  1  0
 22 39  1  0
 24 40  1  0
 25 41  1  0
M  END
$$$$
