
     RDKit          3D

 55 58  0  0  0  0  0  0  0  0999 V2000
   -3.1263   -1.1668    4.9248 C   0  0  0  0  0  0  0  0  0  0  0  0
   -1.7543   -0.5239    4.7504 C   0  0  0  0  0  0  0  0  0  0  0  0
   -1.7643    0.4455    3.6107 C   0  0  0  0  0  0  0  0  0  0  0  0
   -1.6345    1.7780    3.7615 N   0  0  0  0  0  0  0  0  0  0  0  0
   -1.7018    2.2558    2.5554 O   0  0  0  0  0  0  0  0  0  0  0  0
   -1.8702    1.2765    1.6986 C   0  0  0  0  0  0  0  0  0  0  0  0
   -1.9182    0.0807    2.3210 N   0  0  0  0  0  0  0  0  0  0  0  0
   -1.9941    1.4586    0.2386 C   0  0  0  0  0  0  0  0  0  0  0  0
   -1.7945    2.7203   -0.3333 C   0  0  0  0  0  0  0  0  0  0  0  0
   -1.9019    2.8923   -1.7129 C   0  0  0  0  0  0  0  0  0  0  0  0
   -2.2025    1.8051   -2.5508 C   0  0  0  0  0  0  0  0  0  0  0  0
   -2.2829    2.0282   -4.0375 C   0  0  0  0  0  0  0  0  0  0  0  0
   -2.4223    0.5255   -1.9840 C   0  0  0  0  0  0  0  0  0  0  0  0
   -2.3204    0.3729   -0.5880 C   0  0  0  0  0  0  0  0  0  0  0  0
   -2.7467   -0.6063   -2.8215 N   0  0  0  0  0  0  0  0  0  0  0  0
   -2.5314   -2.0031   -2.4337 C   0  0  0  0  0  0  0  0  0  0  0  0
   -1.0840   -2.2442   -2.0907 C   0  0  0  0  0  0  0  0  0  0  0  0
   -0.0839   -1.9946   -3.0431 C   0  0  0  0  0  0  0  0  0  0  0  0
    1.2636   -2.1594   -2.7107 C   0  0  0  0  0  0  0  0  0  0  0  0
    1.6280   -2.5664   -1.4189 C   0  0  0  0  0  0  0  0  0  0  0  0
    0.6277   -2.8539   -0.4779 C   0  0  0  0  0  0  0  0  0  0  0  0
   -0.7195   -2.6954   -0.8113 C   0  0  0  0  0  0  0  0  0  0  0  0
    3.0512   -2.7189   -1.0674 C   0  0  0  0  0  0  0  0  0  0  0  0
    3.7978   -3.3912   -1.8293 O   0  0  0  0  0  0  0  0  0  0  0  0
    3.6046   -2.0915    0.1047 N   0  0  0  0  0  0  0  0  0  0  0  0
    4.9427   -2.3814    0.5908 C   0  0  0  0  0  0  0  0  0  0  0  0
    5.2896   -1.2518    1.5523 C   0  0  0  0  0  0  0  0  0  0  0  0
    3.9722   -0.5520    1.8769 C   0  0  0  0  0  0  0  0  0  0  0  0
    3.0026   -0.9448    0.7713 C   0  0  0  0  0  0  0  0  0  0  0  0
   -3.1086   -1.8504    5.7997 H   0  0  0  0  0  0  0  0  0  0  0  0
   -3.3941   -1.7541    4.0202 H   0  0  0  0  0  0  0  0  0  0  0  0
   -3.9004   -0.3868    5.0990 H   0  0  0  0  0  0  0  0  0  0  0  0
   -1.4672   -0.0008    5.6881 H   0  0  0  0  0  0  0  0  0  0  0  0
   -1.0005   -1.3144    4.5478 H   0  0  0  0  0  0  0  0  0  0  0  0
   -1.5506    3.5742    0.2869 H   0  0  0  0  0  0  0  0  0  0  0  0
   -1.7408    3.8792   -2.1283 H   0  0  0  0  0  0  0  0  0  0  0  0
   -1.9353    3.0459   -4.3188 H   0  0  0  0  0  0  0  0  0  0  0  0
   -1.6381    1.2947   -4.5669 H   0  0  0  0  0  0  0  0  0  0  0  0
   -3.3342    1.9143   -4.3763 H   0  0  0  0  0  0  0  0  0  0  0  0
   -2.5116   -0.5880   -0.1349 H   0  0  0  0  0  0  0  0  0  0  0  0
   -3.1018   -0.4439   -3.7900 H   0  0  0  0  0  0  0  0  0  0  0  0
   -3.2037   -2.2624   -1.5881 H   0  0  0  0  0  0  0  0  0  0  0  0
   -2.8100   -2.6681   -3.2800 H   0  0  0  0  0  0  0  0  0  0  0  0
   -0.3487   -1.6522   -4.0353 H   0  0  0  0  0  0  0  0  0  0  0  0
    2.0217   -1.9442   -3.4511 H   0  0  0  0  0  0  0  0  0  0  0  0
    0.8887   -3.2099    0.5121 H   0  0  0  0  0  0  0  0  0  0  0  0
   -1.4763   -2.9116   -0.0653 H   0  0  0  0  0  0  0  0  0  0  0  0
    5.6709   -2.4049   -0.2486 H   0  0  0  0  0  0  0  0  0  0  0  0
    4.9419   -3.3599    1.1167 H   0  0  0  0  0  0  0  0  0  0  0  0
    5.9764   -0.5336    1.0502 H   0  0  0  0  0  0  0  0  0  0  0  0
    5.7775   -1.6406    2.4725 H   0  0  0  0  0  0  0  0  0  0  0  0
    3.5912   -0.9168    2.8568 H   0  0  0  0  0  0  0  0  0  0  0  0
    4.1024    0.5505    1.9274 H   0  0  0  0  0  0  0  0  0  0  0  0
    2.0162   -1.2103    1.2083 H   0  0  0  0  0  0  0  0  0  0  0  0
    2.8824   -0.1104    0.0456 H   0  0  0  0  0  0  0  0  0  0  0  0
  1  2  1  0
  2  3  1  0
  3  4  2  0
  4  5  1  0
  5  6  1  0
  6  7  2  0
  6  8  1  0
  8  9  2  0
  9 10  1  0
 10 11  2  0
 11 12  1  0
 11 13  1  0
 13 14  2  0
 13 15  1  0
 15 16  1  0
 16 17  1  0
 17 18  2  0
 18 19  1  0
 19 20  2  0
 20 21  1  0
 21 22  2  0
 20 23  1  0
 23 24  2  0
 23 25  1  0
 25 26  1  0
 26 27  1  0
 27 28  1  0
 28 29  1  0
  7  3  1  0
  8 14  1  0
 17 22  1  0
 29 25  1  0
  1 30  1  0
  1 31  1  0
  1 32  1  0
  2 33  1  0
  2 34  1  0
  9 35  1  0
 10 36  1  0
 12 37  1  0
 12 38  1  0
 12 39  1  0
 14 40  1  0
 15 41  1  0
 16 42  1  0
 16 43  1  0
 18 44  1  0
 19 45  1  0
 21 46  1  0
 22 47  1  0
 26 48  1  0
 26 49  1  0
 27 50  1  0
 27 51  1  0
 28 52  1  0
 28 53  1  0
 29 54  1  0
 29 55  1  0
M  END
$$$$
