
     RDKit          3D

 51 54  0  0  0  0  0  0  0  0999 V2000
    1.1652    1.9756    1.6642 O   0  0  0  0  0  0  0  0  0  0  0  0
   -0.0128    2.2247    1.2909 C   0  0  0  0  0  0  0  0  0  0  0  0
   -0.8552    3.1788    2.0932 C   0  0  0  0  0  0  0  0  0  0  0  0
   -1.5732    2.5299    3.2981 C   0  0  0  0  0  0  0  0  0  0  0  0
   -2.5541    1.3928    2.8853 C   0  0  0  0  0  0  0  0  0  0  0  0
   -3.0108    0.5676    4.1118 C   0  0  0  0  0  0  0  0  0  0  0  0
   -3.6679    1.4486    5.1831 C   0  0  0  0  0  0  0  0  0  0  0  0
   -2.5069    1.8534    6.0893 C   0  0  0  0  0  0  0  0  0  0  0  0
   -1.2872    1.1707    5.4549 C   0  0  0  0  0  0  0  0  0  0  0  0
   -0.5888    2.0836    4.4186 C   0  0  0  0  0  0  0  0  0  0  0  0
   -1.8130    0.0152    4.7357 N   0  0  0  0  0  0  0  0  0  0  0  0
   -0.5634    1.5806    0.1298 N   0  0  0  0  0  0  0  0  0  0  0  0
    0.1829    0.7108   -0.7374 C   0  0  0  0  0  0  0  0  0  0  0  0
    1.5169    0.9856   -1.0796 C   0  0  0  0  0  0  0  0  0  0  0  0
    2.2142    0.1370   -1.9437 C   0  0  0  0  0  0  0  0  0  0  0  0
    1.5842   -0.9964   -2.4917 C   0  0  0  0  0  0  0  0  0  0  0  0
    2.2511   -1.8759   -3.3589 O   0  0  0  0  0  0  0  0  0  0  0  0
    3.6085   -1.7353   -3.7673 C   0  0  0  0  0  0  0  0  0  0  0  0
    3.9665   -2.8698   -4.6808 C   0  0  0  0  0  0  0  0  0  0  0  0
    3.7940   -2.7529   -6.0676 C   0  0  0  0  0  0  0  0  0  0  0  0
    4.0954   -3.8316   -6.9012 C   0  0  0  0  0  0  0  0  0  0  0  0
    4.5546   -5.0240   -6.3379 C   0  0  0  0  0  0  0  0  0  0  0  0
    4.6991   -5.1293   -4.9901 N   0  0  0  0  0  0  0  0  0  0  0  0
    4.4135   -4.0925   -4.1575 C   0  0  0  0  0  0  0  0  0  0  0  0
    0.2447   -1.2568   -2.1663 C   0  0  0  0  0  0  0  0  0  0  0  0
   -0.5791   -2.6552   -2.8399 Cl  0  0  0  0  0  0  0  0  0  0  0  0
   -0.4510   -0.4041   -1.3024 C   0  0  0  0  0  0  0  0  0  0  0  0
   -0.2106    4.0082    2.4576 H   0  0  0  0  0  0  0  0  0  0  0  0
   -1.6151    3.6398    1.4256 H   0  0  0  0  0  0  0  0  0  0  0  0
   -2.1963    3.3423    3.7333 H   0  0  0  0  0  0  0  0  0  0  0  0
   -3.4374    1.8250    2.3674 H   0  0  0  0  0  0  0  0  0  0  0  0
   -2.0581    0.6920    2.1822 H   0  0  0  0  0  0  0  0  0  0  0  0
   -3.6969   -0.2457    3.7860 H   0  0  0  0  0  0  0  0  0  0  0  0
   -4.1826    2.3331    4.7488 H   0  0  0  0  0  0  0  0  0  0  0  0
   -4.4078    0.8510    5.7593 H   0  0  0  0  0  0  0  0  0  0  0  0
   -2.3926    2.9578    6.1492 H   0  0  0  0  0  0  0  0  0  0  0  0
   -2.6699    1.4542    7.1143 H   0  0  0  0  0  0  0  0  0  0  0  0
   -0.5567    0.8534    6.2319 H   0  0  0  0  0  0  0  0  0  0  0  0
   -0.1659    2.9771    4.9271 H   0  0  0  0  0  0  0  0  0  0  0  0
    0.2573    1.5124    3.9841 H   0  0  0  0  0  0  0  0  0  0  0  0
   -2.1023   -0.7117    5.4339 H   0  0  0  0  0  0  0  0  0  0  0  0
   -1.5925    1.6641   -0.0330 H   0  0  0  0  0  0  0  0  0  0  0  0
    2.0141    1.8692   -0.7021 H   0  0  0  0  0  0  0  0  0  0  0  0
    3.2404    0.3768   -2.1855 H   0  0  0  0  0  0  0  0  0  0  0  0
    3.7443   -0.7654   -4.2941 H   0  0  0  0  0  0  0  0  0  0  0  0
    4.2728   -1.7458   -2.8758 H   0  0  0  0  0  0  0  0  0  0  0  0
    3.4279   -1.8302   -6.5012 H   0  0  0  0  0  0  0  0  0  0  0  0
    3.9707   -3.7456   -7.9730 H   0  0  0  0  0  0  0  0  0  0  0  0
    4.7913   -5.8681   -6.9717 H   0  0  0  0  0  0  0  0  0  0  0  0
    4.5336   -4.2214   -3.0897 H   0  0  0  0  0  0  0  0  0  0  0  0
   -1.4852   -0.6158   -1.0597 H   0  0  0  0  0  0  0  0  0  0  0  0
  1  2  2  0
  2  3  1  0
  3  4  1  0
  4  5  1  0
  5  6  1  0
  6  7  1  0
  7  8  1  0
  8  9  1  0
  9 10  1  0
  9 11  1  0
  2 12  1  0
 12 13  1  0
 13 14  2  0
 14 15  1  0
 15 16  2  0
 16 17  1  0
 17 18  1  0
 18 19  1  0
 19 20  2  0
 20 21  1  0
 21 22  2  0
 22 23  1  0
 23 24  2  0
 16 25  1  0
 25 26  1  0
 25 27  2  0
 10  4  1  0
 11  6  1  0
 13 27  1  0
 24 19  1  0
  3 28  1  0
  3 29  1  0
  4 30  1  0
  5 31  1  0
  5 32  1  0
  6 33  1  0
  7 34  1  0
  7 35  1  0
  8 36  1  0
  8 37  1  0
  9 38  1  0
 10 39  1  0
 10 40  1  0
 11 41  1  0
 12 42  1  0
 14 43  1  0
 15 44  1  0
 18 45  1  0
 18 46  1  0
 20 47  1  0
 21 48  1  0
 22 49  1  0
 24 50  1  0
 27 51  1  0
M  END
$$$$
