
     RDKit          3D

 45 48  0  0  0  0  0  0  0  0999 V2000
   -2.2275   -2.4826    2.4644 C   0  0  0  0  0  0  0  0  0  0  0  0
   -1.2537   -1.6032    1.6698 C   0  0  0  0  0  0  0  0  0  0  0  0
   -2.0412   -0.6809    0.7120 C   0  0  0  0  0  0  0  0  0  0  0  0
   -1.1665    0.2985    0.0534 N   0  0  0  0  0  0  0  0  0  0  0  0
   -0.7389    1.4751    0.8235 C   0  0  0  0  0  0  0  0  0  0  0  0
    0.5776    1.2057    1.5765 C   0  0  0  0  0  0  0  0  0  0  0  0
    0.7956   -0.2349    1.8537 N   0  0  0  0  0  0  0  0  0  0  0  0
   -0.3351   -0.8128    2.6251 C   0  0  0  0  0  0  0  0  0  0  0  0
    2.0882   -0.4346    2.5484 C   0  0  0  0  0  0  0  0  0  0  0  0
    2.5011   -1.9082    2.6433 C   0  0  0  0  0  0  0  0  0  0  0  0
    3.7247   -1.6313    1.7867 C   0  0  0  0  0  0  0  0  0  0  0  0
    3.3027   -0.1779    1.6488 C   0  0  0  0  0  0  0  0  0  0  0  0
   -0.4828   -0.0555   -1.1634 C   0  0  0  0  0  0  0  0  0  0  0  0
   -0.0697   -1.2353   -1.3274 O   0  0  0  0  0  0  0  0  0  0  0  0
   -0.2617    0.9343   -2.2317 C   0  0  0  0  0  0  0  0  0  0  0  0
    0.7268    0.8207   -3.2320 C   0  0  0  0  0  0  0  0  0  0  0  0
    0.4999    1.9358   -3.9943 C   0  0  0  0  0  0  0  0  0  0  0  0
    0.9861    2.4909   -5.0704 O   0  0  0  0  0  0  0  0  0  0  0  0
    0.2427    3.5798   -5.2633 C   0  0  0  0  0  0  0  0  0  0  0  0
    0.5031    4.7922   -6.7108 Br  0  0  0  0  0  0  0  0  0  0  0  0
   -0.7497    3.7139   -4.2743 C   0  0  0  0  0  0  0  0  0  0  0  0
   -0.5065    2.6157   -3.4965 C   0  0  0  0  0  0  0  0  0  0  0  0
   -1.0337    2.0483   -2.4073 N   0  0  0  0  0  0  0  0  0  0  0  0
   -1.6666   -3.2102    3.0892 H   0  0  0  0  0  0  0  0  0  0  0  0
   -2.8789   -3.0570    1.7716 H   0  0  0  0  0  0  0  0  0  0  0  0
   -2.8670   -1.8596    3.1262 H   0  0  0  0  0  0  0  0  0  0  0  0
   -0.6178   -2.2831    1.0610 H   0  0  0  0  0  0  0  0  0  0  0  0
   -2.8402   -0.1460    1.2715 H   0  0  0  0  0  0  0  0  0  0  0  0
   -2.5545   -1.2988   -0.0577 H   0  0  0  0  0  0  0  0  0  0  0  0
   -0.6145    2.3577    0.1637 H   0  0  0  0  0  0  0  0  0  0  0  0
   -1.5264    1.7538    1.5575 H   0  0  0  0  0  0  0  0  0  0  0  0
    1.4002    1.5949    0.9404 H   0  0  0  0  0  0  0  0  0  0  0  0
    0.5889    1.7940    2.5222 H   0  0  0  0  0  0  0  0  0  0  0  0
    0.0246   -1.5059    3.4184 H   0  0  0  0  0  0  0  0  0  0  0  0
   -0.9190   -0.0334    3.1662 H   0  0  0  0  0  0  0  0  0  0  0  0
    2.1491    0.0946    3.5273 H   0  0  0  0  0  0  0  0  0  0  0  0
    1.7987   -2.6089    2.1401 H   0  0  0  0  0  0  0  0  0  0  0  0
    2.7669   -2.2084    3.6802 H   0  0  0  0  0  0  0  0  0  0  0  0
    4.6755   -1.7472    2.3516 H   0  0  0  0  0  0  0  0  0  0  0  0
    3.7021   -2.1784    0.8187 H   0  0  0  0  0  0  0  0  0  0  0  0
    4.0322    0.5231    2.1097 H   0  0  0  0  0  0  0  0  0  0  0  0
    3.0501    0.0653    0.5936 H   0  0  0  0  0  0  0  0  0  0  0  0
    1.4693    0.0462   -3.3721 H   0  0  0  0  0  0  0  0  0  0  0  0
   -1.5064    4.4784   -4.1612 H   0  0  0  0  0  0  0  0  0  0  0  0
   -1.8616    2.3661   -1.8561 H   0  0  0  0  0  0  0  0  0  0  0  0
  1  2  1  0
  2  3  1  0
  3  4  1  0
  4  5  1  0
  5  6  1  0
  6  7  1  0
  7  8  1  0
  7  9  1  0
  9 10  1  0
 10 11  1  0
 11 12  1  0
  4 13  1  0
 13 14  2  0
 13 15  1  0
 15 16  2  0
 16 17  1  0
 17 18  1  0
 18 19  1  0
 19 20  1  0
 19 21  2  0
 21 22  1  0
 22 23  1  0
  8  2  1  0
 12  9  1  0
 23 15  1  0
 17 22  2  0
  1 24  1  0
  1 25  1  0
  1 26  1  0
  2 27  1  0
  3 28  1  0
  3 29  1  0
  5 30  1  0
  5 31  1  0
  6 32  1  0
  6 33  1  0
  8 34  1  0
  8 35  1  0
  9 36  1  0
 10 37  1  0
 10 38  1  0
 11 39  1  0
 11 40  1  0
 12 41  1  0
 12 42  1  0
 16 43  1  0
 21 44  1  0
 23 45  1  0
M  END
$$$$
