
     RDKit          3D

 40 42  0  0  0  0  0  0  0  0999 V2000
    0.2921    2.5316    0.0353 C   0  0  0  0  0  0  0  0  0  0  0  0
    1.2436    2.1936    1.1917 C   0  0  0  0  0  0  0  0  0  0  0  0
    2.6075    1.6978    0.6643 C   0  0  0  0  0  0  0  0  0  0  0  0
    2.4960    0.4088   -0.1001 C   0  0  0  0  0  0  0  0  0  0  0  0
    2.4703   -0.6840    0.5284 O   0  0  0  0  0  0  0  0  0  0  0  0
    2.3800    0.4247   -1.5298 N   0  0  0  0  0  0  0  0  0  0  0  0
    2.0111   -0.7622   -2.2966 C   0  0  0  0  0  0  0  0  0  0  0  0
    0.5442   -1.0469   -2.1252 C   0  0  0  0  0  0  0  0  0  0  0  0
    0.1099   -2.0608   -1.2601 C   0  0  0  0  0  0  0  0  0  0  0  0
   -1.2555   -2.2849   -1.0646 C   0  0  0  0  0  0  0  0  0  0  0  0
   -2.2147   -1.4941   -1.7232 C   0  0  0  0  0  0  0  0  0  0  0  0
   -1.7715   -0.4757   -2.5894 C   0  0  0  0  0  0  0  0  0  0  0  0
   -0.4053   -0.2540   -2.7845 C   0  0  0  0  0  0  0  0  0  0  0  0
   -3.6205   -1.7368   -1.5054 N   0  0  0  0  0  0  0  0  0  0  0  0
   -4.6694   -1.0047   -1.9309 C   0  0  0  0  0  0  0  0  0  0  0  0
   -5.8376   -1.5394   -1.5260 N   0  0  0  0  0  0  0  0  0  0  0  0
   -5.4373   -2.6281   -0.8364 C   0  0  0  0  0  0  0  0  0  0  0  0
   -4.0978   -2.7580   -0.8150 N   0  0  0  0  0  0  0  0  0  0  0  0
    1.4599    3.3700    1.9428 O   0  0  0  0  0  0  0  0  0  0  0  0
    1.1685    3.0415    3.2631 C   0  0  0  0  0  0  0  0  0  0  0  0
    0.3699    1.7773    3.2133 C   0  0  0  0  0  0  0  0  0  0  0  0
    0.6538    1.1847    1.9870 O   0  0  0  0  0  0  0  0  0  0  0  0
    0.0215    1.6174   -0.5327 H   0  0  0  0  0  0  0  0  0  0  0  0
   -0.6442    2.9752    0.4361 H   0  0  0  0  0  0  0  0  0  0  0  0
    0.7616    3.2643   -0.6554 H   0  0  0  0  0  0  0  0  0  0  0  0
    3.2940    1.5415    1.5251 H   0  0  0  0  0  0  0  0  0  0  0  0
    3.0696    2.4776    0.0205 H   0  0  0  0  0  0  0  0  0  0  0  0
    2.4875    1.3307   -2.0394 H   0  0  0  0  0  0  0  0  0  0  0  0
    2.6339   -1.6277   -1.9814 H   0  0  0  0  0  0  0  0  0  0  0  0
    2.2240   -0.5843   -3.3731 H   0  0  0  0  0  0  0  0  0  0  0  0
    0.8275   -2.6756   -0.7312 H   0  0  0  0  0  0  0  0  0  0  0  0
   -1.5621   -3.0733   -0.3893 H   0  0  0  0  0  0  0  0  0  0  0  0
   -2.4711    0.1513   -3.1223 H   0  0  0  0  0  0  0  0  0  0  0  0
   -0.0862    0.5431   -3.4448 H   0  0  0  0  0  0  0  0  0  0  0  0
   -4.6045   -0.0960   -2.5122 H   0  0  0  0  0  0  0  0  0  0  0  0
   -6.1162   -3.3178   -0.3536 H   0  0  0  0  0  0  0  0  0  0  0  0
    2.1180    2.8828    3.8196 H   0  0  0  0  0  0  0  0  0  0  0  0
    0.5901    3.8606    3.7412 H   0  0  0  0  0  0  0  0  0  0  0  0
   -0.7182    1.9995    3.2693 H   0  0  0  0  0  0  0  0  0  0  0  0
    0.6526    1.0934    4.0417 H   0  0  0  0  0  0  0  0  0  0  0  0
  1  2  1  0
  2  3  1  0
  3  4  1  0
  4  5  2  0
  4  6  1  0
  6  7  1  0
  7  8  1  0
  8  9  2  0
  9 10  1  0
 10 11  2  0
 11 12  1  0
 12 13  2  0
 11 14  1  0
 14 15  1  0
 15 16  2  0
 16 17  1  0
 17 18  2  0
  2 19  1  0
 19 20  1  0
 20 21  1  0
 21 22  1  0
 22  2  1  0
  8 13  1  0
 18 14  1  0
  1 23  1  0
  1 24  1  0
  1 25  1  0
  3 26  1  0
  3 27  1  0
  6 28  1  0
  7 29  1  0
  7 30  1  0
  9 31  1  0
 10 32  1  0
 12 33  1  0
 13 34  1  0
 15 35  1  0
 17 36  1  0
 20 37  1  0
 20 38  1  0
 21 39  1  0
 21 40  1  0
M  END
$$$$
