
     RDKit          3D

 46 48  0  0  0  0  0  0  0  0999 V2000
   -2.1622   -2.4782    2.6237 C   0  0  0  0  0  0  0  0  0  0  0  0
   -0.8624   -2.3698    1.8054 C   0  0  0  0  0  0  0  0  0  0  0  0
    0.2569   -1.8108    2.7095 C   0  0  0  0  0  0  0  0  0  0  0  0
   -0.4908   -3.6994    1.3462 N   0  0  0  0  0  0  0  0  0  0  0  0
   -0.7653   -3.8283   -0.0315 C   0  0  0  0  0  0  0  0  0  0  0  0
   -0.5999   -4.9060   -0.6609 O   0  0  0  0  0  0  0  0  0  0  0  0
   -1.3059   -2.5947   -0.6361 C   0  0  0  0  0  0  0  0  0  0  0  0
   -1.1227   -1.5452    0.4871 C   0  0  0  0  0  0  0  0  0  0  0  0
   -0.0009   -0.5775    0.1440 C   0  0  0  0  0  0  0  0  0  0  0  0
    1.0586   -1.0303   -0.3717 O   0  0  0  0  0  0  0  0  0  0  0  0
   -0.0953    0.8323    0.4546 N   0  0  0  0  0  0  0  0  0  0  0  0
   -1.2528    1.4388    1.0987 C   0  0  0  0  0  0  0  0  0  0  0  0
   -0.8383    2.8574    1.4562 C   0  0  0  0  0  0  0  0  0  0  0  0
    0.3660    3.1646    0.5761 C   0  0  0  0  0  0  0  0  0  0  0  0
    0.9878    1.7971    0.2283 C   0  0  0  0  0  0  0  0  0  0  0  0
    2.1348    1.4741    1.2165 C   0  0  0  0  0  0  0  0  0  0  0  0
    1.4346    1.7933   -1.2417 C   0  0  0  0  0  0  0  0  0  0  0  0
    2.7640    2.0850   -1.6203 C   0  0  0  0  0  0  0  0  0  0  0  0
    3.1305    2.1187   -2.9691 C   0  0  0  0  0  0  0  0  0  0  0  0
    2.1782    1.8874   -3.9620 C   0  0  0  0  0  0  0  0  0  0  0  0
    0.8528    1.6339   -3.6095 C   0  0  0  0  0  0  0  0  0  0  0  0
    0.4793    1.5990   -2.2636 C   0  0  0  0  0  0  0  0  0  0  0  0
   -2.4792   -1.4755    2.9828 H   0  0  0  0  0  0  0  0  0  0  0  0
   -2.9785   -2.9059    2.0023 H   0  0  0  0  0  0  0  0  0  0  0  0
   -2.0158   -3.1403    3.5042 H   0  0  0  0  0  0  0  0  0  0  0  0
    1.2371   -1.8351    2.1884 H   0  0  0  0  0  0  0  0  0  0  0  0
    0.3554   -2.4271    3.6289 H   0  0  0  0  0  0  0  0  0  0  0  0
    0.0321   -0.7663    3.0116 H   0  0  0  0  0  0  0  0  0  0  0  0
   -0.2139   -4.4928    1.9674 H   0  0  0  0  0  0  0  0  0  0  0  0
   -2.3854   -2.7438   -0.8552 H   0  0  0  0  0  0  0  0  0  0  0  0
   -0.7722   -2.3422   -1.5782 H   0  0  0  0  0  0  0  0  0  0  0  0
   -2.0735   -0.9758    0.5596 H   0  0  0  0  0  0  0  0  0  0  0  0
   -1.5311    0.8812    2.0186 H   0  0  0  0  0  0  0  0  0  0  0  0
   -2.1074    1.4547    0.3882 H   0  0  0  0  0  0  0  0  0  0  0  0
   -0.5340    2.8992    2.5254 H   0  0  0  0  0  0  0  0  0  0  0  0
   -1.6657    3.5794    1.2826 H   0  0  0  0  0  0  0  0  0  0  0  0
    1.0746    3.8490    1.0923 H   0  0  0  0  0  0  0  0  0  0  0  0
    0.0011    3.6837   -0.3389 H   0  0  0  0  0  0  0  0  0  0  0  0
    2.8658    2.3076    1.2783 H   0  0  0  0  0  0  0  0  0  0  0  0
    1.7275    1.3138    2.2382 H   0  0  0  0  0  0  0  0  0  0  0  0
    2.6732    0.5525    0.9116 H   0  0  0  0  0  0  0  0  0  0  0  0
    3.5280    2.2907   -0.8852 H   0  0  0  0  0  0  0  0  0  0  0  0
    4.1552    2.3321   -3.2449 H   0  0  0  0  0  0  0  0  0  0  0  0
    2.4652    1.9167   -5.0052 H   0  0  0  0  0  0  0  0  0  0  0  0
    0.1107    1.4716   -4.3806 H   0  0  0  0  0  0  0  0  0  0  0  0
   -0.5611    1.4235   -2.0210 H   0  0  0  0  0  0  0  0  0  0  0  0
  1  2  1  0
  2  3  1  0
  2  4  1  0
  4  5  1  0
  5  6  2  0
  5  7  1  0
  7  8  1  0
  8  9  1  0
  9 10  2  0
  9 11  1  0
 11 12  1  0
 12 13  1  0
 13 14  1  0
 14 15  1  0
 15 16  1  0
 15 17  1  0
 17 18  2  0
 18 19  1  0
 19 20  2  0
 20 21  1  0
 21 22  2  0
  8  2  1  0
 15 11  1  0
 17 22  1  0
  1 23  1  0
  1 24  1  0
  1 25  1  0
  3 26  1  0
  3 27  1  0
  3 28  1  0
  4 29  1  0
  7 30  1  0
  7 31  1  0
  8 32  1  0
 12 33  1  0
 12 34  1  0
 13 35  1  0
 13 36  1  0
 14 37  1  0
 14 38  1  0
 16 39  1  0
 16 40  1  0
 16 41  1  0
 18 42  1  0
 19 43  1  0
 20 44  1  0
 21 45  1  0
 22 46  1  0
M  END
$$$$
