
     RDKit          3D

 46 48  0  0  0  0  0  0  0  0999 V2000
   -3.4887    1.0078    0.2262 O   0  0  0  0  0  0  0  0  0  0  0  0
   -2.4268    0.3307    0.2861 C   0  0  0  0  0  0  0  0  0  0  0  0
   -2.0176   -0.2414    1.5369 N   0  0  0  0  0  0  0  0  0  0  0  0
   -2.7682    0.0141    2.7696 C   0  0  0  0  0  0  0  0  0  0  0  0
   -2.1503   -0.6692    4.0082 C   0  0  0  0  0  0  0  0  0  0  0  0
   -0.7266   -0.1699    4.3143 C   0  0  0  0  0  0  0  0  0  0  0  0
   -0.1542   -0.8750    5.5677 C   0  0  0  0  0  0  0  0  0  0  0  0
   -0.9081   -2.0073    5.9748 O   0  0  0  0  0  0  0  0  0  0  0  0
   -1.1599   -2.8506    4.8683 C   0  0  0  0  0  0  0  0  0  0  0  0
   -2.1891   -2.2113    3.9196 C   0  0  0  0  0  0  0  0  0  0  0  0
   -1.5941    0.1509   -0.9274 C   0  0  0  0  0  0  0  0  0  0  0  0
   -0.1989    0.2381   -0.8142 C   0  0  0  0  0  0  0  0  0  0  0  0
    0.5896    0.1040   -1.9090 N   0  0  0  0  0  0  0  0  0  0  0  0
    0.0565   -0.1309   -3.1353 C   0  0  0  0  0  0  0  0  0  0  0  0
   -1.2911   -0.2145   -3.2745 N   0  0  0  0  0  0  0  0  0  0  0  0
   -2.1359   -0.0939   -2.2140 C   0  0  0  0  0  0  0  0  0  0  0  0
   -3.6166   -0.2300   -2.4674 C   0  0  0  0  0  0  0  0  0  0  0  0
   -3.8412   -0.7450   -3.7326 F   0  0  0  0  0  0  0  0  0  0  0  0
   -4.2210    1.0108   -2.3869 F   0  0  0  0  0  0  0  0  0  0  0  0
   -4.1882   -1.0879   -1.5446 F   0  0  0  0  0  0  0  0  0  0  0  0
    0.8952   -0.2386   -4.2944 N   0  0  0  0  0  0  0  0  0  0  0  0
    2.3237   -0.3940   -4.2474 C   0  0  0  0  0  0  0  0  0  0  0  0
    2.9445   -1.1764   -3.2558 C   0  0  0  0  0  0  0  0  0  0  0  0
    4.3344   -1.3317   -3.2479 C   0  0  0  0  0  0  0  0  0  0  0  0
    5.1134   -0.7216   -4.2344 C   0  0  0  0  0  0  0  0  0  0  0  0
    4.5030    0.0371   -5.2362 C   0  0  0  0  0  0  0  0  0  0  0  0
    3.1135    0.1940   -5.2479 C   0  0  0  0  0  0  0  0  0  0  0  0
   -1.1857   -0.8722    1.5448 H   0  0  0  0  0  0  0  0  0  0  0  0
   -3.8123   -0.3464    2.6416 H   0  0  0  0  0  0  0  0  0  0  0  0
   -2.8091    1.1108    2.9480 H   0  0  0  0  0  0  0  0  0  0  0  0
   -2.7836   -0.3755    4.8766 H   0  0  0  0  0  0  0  0  0  0  0  0
   -0.7370    0.9306    4.4741 H   0  0  0  0  0  0  0  0  0  0  0  0
   -0.0539   -0.3781    3.4556 H   0  0  0  0  0  0  0  0  0  0  0  0
    0.9053   -1.1678    5.3940 H   0  0  0  0  0  0  0  0  0  0  0  0
   -0.1507   -0.1512    6.4101 H   0  0  0  0  0  0  0  0  0  0  0  0
   -0.2169   -3.0830    4.3202 H   0  0  0  0  0  0  0  0  0  0  0  0
   -1.5592   -3.8179    5.2400 H   0  0  0  0  0  0  0  0  0  0  0  0
   -1.9863   -2.5681    2.8880 H   0  0  0  0  0  0  0  0  0  0  0  0
   -3.2099   -2.5584    4.1927 H   0  0  0  0  0  0  0  0  0  0  0  0
    0.2665    0.4399    0.1420 H   0  0  0  0  0  0  0  0  0  0  0  0
    0.4437   -0.1166   -5.2292 H   0  0  0  0  0  0  0  0  0  0  0  0
    2.3573   -1.6875   -2.5046 H   0  0  0  0  0  0  0  0  0  0  0  0
    4.8067   -1.9330   -2.4819 H   0  0  0  0  0  0  0  0  0  0  0  0
    6.1888   -0.8443   -4.2276 H   0  0  0  0  0  0  0  0  0  0  0  0
    5.1062    0.5020   -6.0054 H   0  0  0  0  0  0  0  0  0  0  0  0
    2.6515    0.7825   -6.0307 H   0  0  0  0  0  0  0  0  0  0  0  0
  1  2  2  0
  2  3  1  0
  3  4  1  0
  4  5  1  0
  5  6  1  0
  6  7  1  0
  7  8  1  0
  8  9  1  0
  9 10  1  0
  2 11  1  0
 11 12  2  0
 12 13  1  0
 13 14  2  0
 14 15  1  0
 15 16  2  0
 16 17  1  0
 17 18  1  0
 17 19  1  0
 17 20  1  0
 14 21  1  0
 21 22  1  0
 22 23  2  0
 23 24  1  0
 24 25  2  0
 25 26  1  0
 26 27  2  0
 10  5  1  0
 11 16  1  0
 22 27  1  0
  3 28  1  0
  4 29  1  0
  4 30  1  0
  5 31  1  0
  6 32  1  0
  6 33  1  0
  7 34  1  0
  7 35  1  0
  9 36  1  0
  9 37  1  0
 10 38  1  0
 10 39  1  0
 12 40  1  0
 21 41  1  0
 23 42  1  0
 24 43  1  0
 25 44  1  0
 26 45  1  0
 27 46  1  0
M  END
$$$$
