
     RDKit          3D

 52 55  0  0  0  0  0  0  0  0999 V2000
   -2.3280   -4.1738    1.2339 C   0  0  0  0  0  0  0  0  0  0  0  0
   -1.8230   -3.0299    2.1228 C   0  0  0  0  0  0  0  0  0  0  0  0
   -1.4115   -3.5269    3.5318 C   0  0  0  0  0  0  0  0  0  0  0  0
   -0.3978   -2.5895    4.2102 C   0  0  0  0  0  0  0  0  0  0  0  0
   -0.5834   -1.1395    3.7591 C   0  0  0  0  0  0  0  0  0  0  0  0
   -0.4842   -0.9847    2.2223 C   0  0  0  0  0  0  0  0  0  0  0  0
   -0.7476   -2.2394    1.4707 N   0  0  0  0  0  0  0  0  0  0  0  0
    0.4868   -3.0058    1.1547 C   0  0  0  0  0  0  0  0  0  0  0  0
    0.5994   -3.3061   -0.3543 C   0  0  0  0  0  0  0  0  0  0  0  0
    0.8019   -2.0930   -1.2984 C   0  0  0  0  0  0  0  0  0  0  0  0
   -0.4938   -1.2644   -1.5343 C   0  0  0  0  0  0  0  0  0  0  0  0
   -0.2928    0.2490   -1.3710 C   0  0  0  0  0  0  0  0  0  0  0  0
    0.9287    0.6882   -2.0615 N   0  0  0  0  0  0  0  0  0  0  0  0
    2.1786   -0.0719   -1.9150 C   0  0  0  0  0  0  0  0  0  0  0  0
    2.0197   -1.2257   -0.9194 C   0  0  0  0  0  0  0  0  0  0  0  0
    0.9324    1.8659   -2.8889 C   0  0  0  0  0  0  0  0  0  0  0  0
    1.6181    1.8712   -4.0730 N   0  0  0  0  0  0  0  0  0  0  0  0
    1.6533    2.9769   -4.8832 C   0  0  0  0  0  0  0  0  0  0  0  0
    1.0060    4.1240   -4.5199 N   0  0  0  0  0  0  0  0  0  0  0  0
    0.3312    4.1284   -3.3465 C   0  0  0  0  0  0  0  0  0  0  0  0
   -0.3182    5.1616   -2.7954 N   0  0  0  0  0  0  0  0  0  0  0  0
   -0.7858    4.7680   -1.6157 N   0  0  0  0  0  0  0  0  0  0  0  0
   -0.4306    3.4727   -1.4210 C   0  0  0  0  0  0  0  0  0  0  0  0
    0.2806    3.0470   -2.5270 C   0  0  0  0  0  0  0  0  0  0  0  0
   -1.5601   -4.9656    1.1124 H   0  0  0  0  0  0  0  0  0  0  0  0
   -2.6085   -3.7800    0.2341 H   0  0  0  0  0  0  0  0  0  0  0  0
   -3.2293   -4.6344    1.6915 H   0  0  0  0  0  0  0  0  0  0  0  0
   -2.7003   -2.3550    2.2562 H   0  0  0  0  0  0  0  0  0  0  0  0
   -2.3235   -3.5991    4.1645 H   0  0  0  0  0  0  0  0  0  0  0  0
   -0.9708   -4.5465    3.4811 H   0  0  0  0  0  0  0  0  0  0  0  0
   -0.5149   -2.6529    5.3137 H   0  0  0  0  0  0  0  0  0  0  0  0
    0.6375   -2.9147    3.9701 H   0  0  0  0  0  0  0  0  0  0  0  0
    0.1809   -0.4987    4.2496 H   0  0  0  0  0  0  0  0  0  0  0  0
   -1.5817   -0.7871    4.1011 H   0  0  0  0  0  0  0  0  0  0  0  0
    0.5022   -0.5488    1.9580 H   0  0  0  0  0  0  0  0  0  0  0  0
   -1.2302   -0.2259    1.9017 H   0  0  0  0  0  0  0  0  0  0  0  0
    1.4096   -2.4954    1.5016 H   0  0  0  0  0  0  0  0  0  0  0  0
    0.5039   -3.9804    1.6869 H   0  0  0  0  0  0  0  0  0  0  0  0
   -0.2909   -3.8776   -0.6898 H   0  0  0  0  0  0  0  0  0  0  0  0
    1.4675   -3.9884   -0.4898 H   0  0  0  0  0  0  0  0  0  0  0  0
    1.0577   -2.5417   -2.2863 H   0  0  0  0  0  0  0  0  0  0  0  0
   -0.8500   -1.4503   -2.5720 H   0  0  0  0  0  0  0  0  0  0  0  0
   -1.3223   -1.5883   -0.8730 H   0  0  0  0  0  0  0  0  0  0  0  0
   -0.2121    0.5013   -0.2936 H   0  0  0  0  0  0  0  0  0  0  0  0
   -1.1872    0.7656   -1.7822 H   0  0  0  0  0  0  0  0  0  0  0  0
    2.4807   -0.4809   -2.9038 H   0  0  0  0  0  0  0  0  0  0  0  0
    2.9841    0.6048   -1.5557 H   0  0  0  0  0  0  0  0  0  0  0  0
    2.9429   -1.8450   -0.9226 H   0  0  0  0  0  0  0  0  0  0  0  0
    1.8994   -0.7927    0.0934 H   0  0  0  0  0  0  0  0  0  0  0  0
    2.2029    2.9427   -5.8137 H   0  0  0  0  0  0  0  0  0  0  0  0
   -0.4324    6.1197   -3.1940 H   0  0  0  0  0  0  0  0  0  0  0  0
   -0.6596    2.9072   -0.5290 H   0  0  0  0  0  0  0  0  0  0  0  0
  1  2  1  0
  2  3  1  0
  3  4  1  0
  4  5  1  0
  5  6  1  0
  6  7  1  0
  7  8  1  0
  8  9  1  0
  9 10  1  0
 10 11  1  0
 11 12  1  0
 12 13  1  0
 13 14  1  0
 14 15  1  0
 13 16  1  0
 16 17  2  0
 17 18  1  0
 18 19  2  0
 19 20  1  0
 20 21  1  0
 21 22  1  0
 22 23  2  0
 23 24  1  0
  7  2  1  0
 15 10  1  0
 16 24  1  0
 24 20  2  0
  1 25  1  0
  1 26  1  0
  1 27  1  0
  2 28  1  0
  3 29  1  0
  3 30  1  0
  4 31  1  0
  4 32  1  0
  5 33  1  0
  5 34  1  0
  6 35  1  0
  6 36  1  0
  8 37  1  0
  8 38  1  0
  9 39  1  0
  9 40  1  0
 10 41  1  0
 11 42  1  0
 11 43  1  0
 12 44  1  0
 12 45  1  0
 14 46  1  0
 14 47  1  0
 15 48  1  0
 15 49  1  0
 18 50  1  0
 21 51  1  0
 23 52  1  0
M  END
$$$$
