
     RDKit          3D

 49 51  0  0  0  0  0  0  0  0999 V2000
   -2.7835    0.8175    3.9349 C   0  0  0  0  0  0  0  0  0  0  0  0
   -2.4805   -0.3152    3.0460 N   0  0  0  0  0  0  0  0  0  0  0  0
   -3.5386   -1.3330    3.1706 C   0  0  0  0  0  0  0  0  0  0  0  0
   -1.1533   -0.8826    3.3746 C   0  0  0  0  0  0  0  0  0  0  0  0
   -0.5485   -1.6256    2.1756 C   0  0  0  0  0  0  0  0  0  0  0  0
   -0.4089   -0.7197    0.9801 C   0  0  0  0  0  0  0  0  0  0  0  0
   -1.4210   -0.6652    0.0092 C   0  0  0  0  0  0  0  0  0  0  0  0
   -1.3071    0.2021   -1.0806 C   0  0  0  0  0  0  0  0  0  0  0  0
   -0.1898    1.0421   -1.2038 C   0  0  0  0  0  0  0  0  0  0  0  0
    0.8260    0.9817   -0.2372 C   0  0  0  0  0  0  0  0  0  0  0  0
    0.7133    0.1128    0.8515 C   0  0  0  0  0  0  0  0  0  0  0  0
   -0.0339    1.9190   -2.4162 C   0  0  0  0  0  0  0  0  0  0  0  0
    0.5610    1.1445   -3.5000 N   0  0  0  0  0  0  0  0  0  0  0  0
    1.9598    0.8350   -3.5083 C   0  0  0  0  0  0  0  0  0  0  0  0
    2.7954    1.6599   -3.0492 O   0  0  0  0  0  0  0  0  0  0  0  0
    2.4218   -0.5139   -3.9611 C   0  0  0  0  0  0  0  0  0  0  0  0
    2.1927   -1.5086   -2.8567 C   0  0  0  0  0  0  0  0  0  0  0  0
    3.1862   -1.7142   -1.8705 C   0  0  0  0  0  0  0  0  0  0  0  0
    2.9560   -2.5870   -0.7965 C   0  0  0  0  0  0  0  0  0  0  0  0
    1.7248   -3.2303   -0.7242 C   0  0  0  0  0  0  0  0  0  0  0  0
    1.1777   -4.3061    0.4405 S   0  0  0  0  0  0  0  0  0  0  0  0
   -0.3498   -4.5219   -0.2532 C   0  0  0  0  0  0  0  0  0  0  0  0
   -0.4385   -3.7491   -1.4095 C   0  0  0  0  0  0  0  0  0  0  0  0
    0.7325   -3.0294   -1.6685 C   0  0  0  0  0  0  0  0  0  0  0  0
    0.9488   -2.1668   -2.7452 C   0  0  0  0  0  0  0  0  0  0  0  0
   -2.7665    0.5063    5.0035 H   0  0  0  0  0  0  0  0  0  0  0  0
   -3.7828    1.2410    3.6948 H   0  0  0  0  0  0  0  0  0  0  0  0
   -2.0428    1.6315    3.7808 H   0  0  0  0  0  0  0  0  0  0  0  0
   -4.5226   -0.8968    2.8937 H   0  0  0  0  0  0  0  0  0  0  0  0
   -3.3561   -2.1744    2.4714 H   0  0  0  0  0  0  0  0  0  0  0  0
   -3.6004   -1.7294    4.2087 H   0  0  0  0  0  0  0  0  0  0  0  0
   -0.4380   -0.0758    3.6559 H   0  0  0  0  0  0  0  0  0  0  0  0
   -1.2144   -1.5727    4.2467 H   0  0  0  0  0  0  0  0  0  0  0  0
   -1.1624   -2.5140    1.9187 H   0  0  0  0  0  0  0  0  0  0  0  0
    0.4529   -2.0124    2.4647 H   0  0  0  0  0  0  0  0  0  0  0  0
   -2.2950   -1.2989    0.0929 H   0  0  0  0  0  0  0  0  0  0  0  0
   -2.0870    0.2152   -1.8317 H   0  0  0  0  0  0  0  0  0  0  0  0
    1.7078    1.6033   -0.3290 H   0  0  0  0  0  0  0  0  0  0  0  0
    1.5021    0.0863    1.5929 H   0  0  0  0  0  0  0  0  0  0  0  0
   -1.0270    2.2999   -2.7390 H   0  0  0  0  0  0  0  0  0  0  0  0
    0.5948    2.8065   -2.1855 H   0  0  0  0  0  0  0  0  0  0  0  0
   -0.0802    0.5641   -4.0868 H   0  0  0  0  0  0  0  0  0  0  0  0
    1.8640   -0.8140   -4.8744 H   0  0  0  0  0  0  0  0  0  0  0  0
    3.4998   -0.4771   -4.2314 H   0  0  0  0  0  0  0  0  0  0  0  0
    4.1323   -1.1912   -1.9320 H   0  0  0  0  0  0  0  0  0  0  0  0
    3.7132   -2.7475   -0.0403 H   0  0  0  0  0  0  0  0  0  0  0  0
   -1.1351   -5.1538    0.1385 H   0  0  0  0  0  0  0  0  0  0  0  0
   -1.3215   -3.7102   -2.0339 H   0  0  0  0  0  0  0  0  0  0  0  0
    0.1654   -1.9986   -3.4743 H   0  0  0  0  0  0  0  0  0  0  0  0
  1  2  1  0
  2  3  1  0
  2  4  1  0
  4  5  1  0
  5  6  1  0
  6  7  2  0
  7  8  1  0
  8  9  2  0
  9 10  1  0
 10 11  2  0
  9 12  1  0
 12 13  1  0
 13 14  1  0
 14 15  2  0
 14 16  1  0
 16 17  1  0
 17 18  2  0
 18 19  1  0
 19 20  2  0
 20 21  1  0
 21 22  1  0
 22 23  2  0
 23 24  1  0
 24 25  2  0
  6 11  1  0
 17 25  1  0
 20 24  1  0
  1 26  1  0
  1 27  1  0
  1 28  1  0
  3 29  1  0
  3 30  1  0
  3 31  1  0
  4 32  1  0
  4 33  1  0
  5 34  1  0
  5 35  1  0
  7 36  1  0
  8 37  1  0
 10 38  1  0
 11 39  1  0
 12 40  1  0
 12 41  1  0
 13 42  1  0
 16 43  1  0
 16 44  1  0
 18 45  1  0
 19 46  1  0
 22 47  1  0
 23 48  1  0
 25 49  1  0
M  END
$$$$
