
     RDKit          3D

  0  0  0  0  0  0  0  0  0  0999 V3000
M  V30 BEGIN CTAB
M  V30 COUNTS 40 43 0 0 0
M  V30 BEGIN ATOM
M  V30 1 O -2.649262 1.239690 1.001902 0
M  V30 2 C -1.802825 1.064720 0.084127 0
M  V30 3 N -0.823627 0.023401 0.197053 0
M  V30 4 C -0.505948 -0.622290 1.471703 0
M  V30 5 C -1.212312 -1.967723 1.588750 0
M  V30 6 C -0.299913 -2.835625 2.442044 0
M  V30 7 C 1.120031 -2.320940 2.186028 0 CFG=2
M  V30 8 C 1.843882 -1.715078 3.391088 0
M  V30 9 C 1.731677 -0.332394 2.761251 0
M  V30 10 C 0.995840 -0.939399 1.563848 0 CFG=2
M  V30 11 C -1.860067 1.909580 -1.121480 0
M  V30 12 C -2.997905 2.470332 -1.663287 0
M  V30 13 N -2.664190 3.084326 -2.811666 0
M  V30 14 N -1.365016 2.956734 -3.029046 0
M  V30 15 C -0.841899 2.248713 -2.007452 0
M  V30 16 C 0.605036 1.978981 -1.875032 0
M  V30 17 C 1.249984 2.086202 -0.629813 0
M  V30 18 C 2.620069 1.831432 -0.520668 0
M  V30 19 C 3.360343 1.484856 -1.653521 0
M  V30 20 C 2.733051 1.401361 -2.899815 0
M  V30 21 F 3.454300 1.073987 -4.000182 0
M  V30 22 C 1.361826 1.654465 -3.012764 0
M  V30 23 H -0.393821 -0.352621 -0.678718 0
M  V30 24 H -0.824719 0.024340 2.319529 0
M  V30 25 H -1.324139 -2.434975 0.584512 0
M  V30 26 H -2.216799 -1.858220 2.052229 0
M  V30 27 H -0.387830 -3.903341 2.146807 0
M  V30 28 H -0.589395 -2.739887 3.511075 0
M  V30 29 H 1.752622 -3.009189 1.582185 0
M  V30 30 H 2.898599 -2.059377 3.462736 0
M  V30 31 H 1.290227 -1.788245 4.352207 0
M  V30 32 H 2.724067 0.079434 2.475209 0
M  V30 33 H 1.128060 0.368888 3.377001 0
M  V30 34 H 1.560961 -0.855707 0.608251 0
M  V30 35 H -4.003761 2.408453 -1.268446 0
M  V30 36 H -3.318960 3.587157 -3.450296 0
M  V30 37 H 0.697749 2.374912 0.255418 0
M  V30 38 H 3.108505 1.906643 0.442234 0
M  V30 39 H 4.421062 1.288113 -1.565829 0
M  V30 40 H 0.887499 1.582270 -3.983937 0
M  V30 END ATOM
M  V30 BEGIN BOND
M  V30 1 2 1 2
M  V30 2 1 2 3
M  V30 3 1 3 4
M  V30 4 1 4 5
M  V30 5 1 5 6
M  V30 6 1 6 7
M  V30 7 1 7 8
M  V30 8 1 8 9
M  V30 9 1 9 10
M  V30 10 1 2 11
M  V30 11 2 11 12
M  V30 12 1 12 13
M  V30 13 1 13 14
M  V30 14 2 14 15
M  V30 15 1 15 16
M  V30 16 2 16 17
M  V30 17 1 17 18
M  V30 18 2 18 19
M  V30 19 1 19 20
M  V30 20 1 20 21
M  V30 21 2 20 22
M  V30 22 1 10 4
M  V30 23 1 10 7
M  V30 24 1 15 11
M  V30 25 1 16 22
M  V30 26 1 3 23
M  V30 27 1 4 24
M  V30 28 1 5 25
M  V30 29 1 5 26
M  V30 30 1 6 27
M  V30 31 1 6 28
M  V30 32 1 7 29 CFG=3
M  V30 33 1 8 30
M  V30 34 1 8 31
M  V30 35 1 9 32
M  V30 36 1 9 33
M  V30 37 1 10 34 CFG=3
M  V30 38 1 12 35
M  V30 39 1 13 36
M  V30 40 1 17 37
M  V30 41 1 18 38
M  V30 42 1 19 39
M  V30 43 1 22 40
M  V30 END BOND
M  V30 BEGIN COLLECTION
M  V30 MDLV30/STERAC1 ATOMS=(2 7 10)
M  V30 END COLLECTION
M  V30 END CTAB
M  END
>  <_CXSMILES_Data>  (1) 
|&1:6,9,r|

$$$$
