
     RDKit          3D

 52 57  0  0  0  0  0  0  0  0999 V2000
   -3.0412    2.0065    5.3040 C   0  0  0  0  0  0  0  0  0  0  0  0
   -1.9544    1.2200    4.7349 N   0  0  0  0  0  0  0  0  0  0  0  0
   -0.7653    0.8048    5.4275 C   0  0  0  0  0  0  0  0  0  0  0  0
   -0.6532    0.7486    6.6810 O   0  0  0  0  0  0  0  0  0  0  0  0
    0.2892    0.5129    4.4596 C   0  0  0  0  0  0  0  0  0  0  0  0
    1.6116    0.0883    4.5671 C   0  0  0  0  0  0  0  0  0  0  0  0
    2.3558   -0.0482    3.3729 C   0  0  0  0  0  0  0  0  0  0  0  0
    1.7746    0.2539    2.1139 C   0  0  0  0  0  0  0  0  0  0  0  0
    0.4315    0.6943    2.0414 C   0  0  0  0  0  0  0  0  0  0  0  0
   -0.2733    1.0564    0.8641 C   0  0  0  0  0  0  0  0  0  0  0  0
   -1.6221    1.5021    0.9721 C   0  0  0  0  0  0  0  0  0  0  0  0
   -2.2667    1.5907    2.2265 C   0  0  0  0  0  0  0  0  0  0  0  0
   -1.5478    1.2158    3.3608 C   0  0  0  0  0  0  0  0  0  0  0  0
   -0.2554    0.7904    3.2420 C   0  0  0  0  0  0  0  0  0  0  0  0
    0.4820    0.9467   -0.7311 S   0  0  0  0  0  0  0  0  0  0  0  0
   -0.5006    1.3519   -1.7959 O   0  0  0  0  0  0  0  0  0  0  0  0
    1.6488    1.8940   -0.7726 O   0  0  0  0  0  0  0  0  0  0  0  0
    1.0335   -0.6863   -1.0317 N   0  0  0  0  0  0  0  0  0  0  0  0
   -0.0843   -1.6515   -0.9095 C   0  0  0  0  0  0  0  0  0  0  0  0
   -0.9205   -1.7736   -2.1675 C   0  0  0  0  0  0  0  0  0  0  0  0
   -2.2298   -1.2650   -2.1898 C   0  0  0  0  0  0  0  0  0  0  0  0
   -3.0241   -1.4122   -3.3286 C   0  0  0  0  0  0  0  0  0  0  0  0
   -2.5231   -2.0715   -4.4524 C   0  0  0  0  0  0  0  0  0  0  0  0
   -1.2228   -2.5812   -4.4448 C   0  0  0  0  0  0  0  0  0  0  0  0
   -0.4067   -2.4344   -3.3092 C   0  0  0  0  0  0  0  0  0  0  0  0
    0.9953   -2.9328   -3.3223 C   0  0  0  0  0  0  0  0  0  0  0  0
    1.2863   -4.2180   -3.8136 C   0  0  0  0  0  0  0  0  0  0  0  0
    2.5905   -4.7156   -3.7623 C   0  0  0  0  0  0  0  0  0  0  0  0
    3.6174   -3.9396   -3.2234 C   0  0  0  0  0  0  0  0  0  0  0  0
    3.3468   -2.6585   -2.7390 C   0  0  0  0  0  0  0  0  0  0  0  0
    2.0417   -2.1401   -2.7902 C   0  0  0  0  0  0  0  0  0  0  0  0
    1.7673   -0.7280   -2.3155 C   0  0  0  0  0  0  0  0  0  0  0  0
   -2.7678    3.0825    5.2952 H   0  0  0  0  0  0  0  0  0  0  0  0
   -3.9670    1.8561    4.7105 H   0  0  0  0  0  0  0  0  0  0  0  0
   -3.2346    1.6851    6.3483 H   0  0  0  0  0  0  0  0  0  0  0  0
    2.0534   -0.1276    5.5307 H   0  0  0  0  0  0  0  0  0  0  0  0
    3.3851   -0.3786    3.4205 H   0  0  0  0  0  0  0  0  0  0  0  0
    2.3786    0.1493    1.2237 H   0  0  0  0  0  0  0  0  0  0  0  0
   -2.1771    1.7809    0.0864 H   0  0  0  0  0  0  0  0  0  0  0  0
   -3.2898    1.9340    2.2997 H   0  0  0  0  0  0  0  0  0  0  0  0
   -0.7243   -1.4049   -0.0358 H   0  0  0  0  0  0  0  0  0  0  0  0
    0.3356   -2.6499   -0.6611 H   0  0  0  0  0  0  0  0  0  0  0  0
   -2.6372   -0.7571   -1.3236 H   0  0  0  0  0  0  0  0  0  0  0  0
   -4.0322   -1.0177   -3.3376 H   0  0  0  0  0  0  0  0  0  0  0  0
   -3.1428   -2.1826   -5.3330 H   0  0  0  0  0  0  0  0  0  0  0  0
   -0.8461   -3.0699   -5.3339 H   0  0  0  0  0  0  0  0  0  0  0  0
    0.5005   -4.8483   -4.2109 H   0  0  0  0  0  0  0  0  0  0  0  0
    2.8043   -5.7091   -4.1357 H   0  0  0  0  0  0  0  0  0  0  0  0
    4.6265   -4.3301   -3.1842 H   0  0  0  0  0  0  0  0  0  0  0  0
    4.1578   -2.0677   -2.3306 H   0  0  0  0  0  0  0  0  0  0  0  0
    1.2056   -0.1907   -3.1124 H   0  0  0  0  0  0  0  0  0  0  0  0
    2.7263   -0.1803   -2.1928 H   0  0  0  0  0  0  0  0  0  0  0  0
  1  2  1  0
  2  3  1  0
  3  4  2  0
  3  5  1  0
  5  6  2  0
  6  7  1  0
  7  8  2  0
  8  9  1  0
  9 10  2  0
 10 11  1  0
 11 12  2  0
 12 13  1  0
 13 14  2  0
 10 15  1  0
 15 16  2  0
 15 17  2  0
 15 18  1  0
 18 19  1  0
 19 20  1  0
 20 21  2  0
 21 22  1  0
 22 23  2  0
 23 24  1  0
 24 25  2  0
 25 26  1  0
 26 27  2  0
 27 28  1  0
 28 29  2  0
 29 30  1  0
 30 31  2  0
 31 32  1  0
 13  2  1  0
 14  5  1  0
 14  9  1  0
 32 18  1  0
 20 25  1  0
 26 31  1  0
  1 33  1  0
  1 34  1  0
  1 35  1  0
  6 36  1  0
  7 37  1  0
  8 38  1  0
 11 39  1  0
 12 40  1  0
 19 41  1  0
 19 42  1  0
 21 43  1  0
 22 44  1  0
 23 45  1  0
 24 46  1  0
 27 47  1  0
 28 48  1  0
 29 49  1  0
 30 50  1  0
 32 51  1  0
 32 52  1  0
M  END
$$$$
