
     RDKit          3D

 35 37  0  0  0  0  0  0  0  0999 V2000
   -0.5013   -2.8042   -1.7920 O   0  0  0  0  0  0  0  0  0  0  0  0
   -0.5437   -1.6372   -1.3167 C   0  0  0  0  0  0  0  0  0  0  0  0
    0.6876   -0.9153   -1.1871 N   0  0  0  0  0  0  0  0  0  0  0  0
    2.1073   -1.2330   -1.4357 C   0  0  0  0  0  0  0  0  0  0  0  0
    2.6466    0.1027   -1.0286 C   0  0  0  0  0  0  0  0  0  0  0  0
    3.5200    0.0875    0.2346 C   0  0  0  0  0  0  0  0  0  0  0  0
    2.9336   -0.6366    1.2605 F   0  0  0  0  0  0  0  0  0  0  0  0
    1.2017    0.4123   -0.7895 C   0  0  0  0  0  0  0  0  0  0  0  0
   -1.9066   -1.0414   -0.9647 C   0  0  0  0  0  0  0  0  0  0  0  0
   -2.7643   -2.0586   -0.4876 O   0  0  0  0  0  0  0  0  0  0  0  0
   -2.5662   -0.5084   -2.2611 C   0  0  0  0  0  0  0  0  0  0  0  0
   -2.0501    0.8384   -2.6503 C   0  0  0  0  0  0  0  0  0  0  0  0
   -1.8950    1.1367   -3.8642 O   0  0  0  0  0  0  0  0  0  0  0  0
   -1.8241    1.8145   -1.6374 N   0  0  0  0  0  0  0  0  0  0  0  0
   -1.7757    1.4267   -0.2591 C   0  0  0  0  0  0  0  0  0  0  0  0
   -1.6346    2.4123    0.7280 C   0  0  0  0  0  0  0  0  0  0  0  0
   -1.4978    2.0546    2.0689 C   0  0  0  0  0  0  0  0  0  0  0  0
   -1.4843    0.7087    2.4351 C   0  0  0  0  0  0  0  0  0  0  0  0
   -1.2558    0.2229    4.2681 Br  0  0  0  0  0  0  0  0  0  0  0  0
   -1.6234   -0.2845    1.4616 C   0  0  0  0  0  0  0  0  0  0  0  0
   -1.7960    0.0555    0.1034 C   0  0  0  0  0  0  0  0  0  0  0  0
    2.4419   -2.0782   -0.7935 H   0  0  0  0  0  0  0  0  0  0  0  0
    2.2783   -1.4446   -2.5147 H   0  0  0  0  0  0  0  0  0  0  0  0
    3.0846    0.6757   -1.8755 H   0  0  0  0  0  0  0  0  0  0  0  0
    3.6846    1.1301    0.5785 H   0  0  0  0  0  0  0  0  0  0  0  0
    4.5056   -0.3629   -0.0066 H   0  0  0  0  0  0  0  0  0  0  0  0
    0.8329    1.2027   -1.4787 H   0  0  0  0  0  0  0  0  0  0  0  0
    0.9623    0.6363    0.2732 H   0  0  0  0  0  0  0  0  0  0  0  0
   -2.2605   -2.6549    0.1259 H   0  0  0  0  0  0  0  0  0  0  0  0
   -3.6617   -0.4042   -2.1001 H   0  0  0  0  0  0  0  0  0  0  0  0
   -2.4267   -1.2294   -3.0974 H   0  0  0  0  0  0  0  0  0  0  0  0
   -1.6447    2.8066   -1.9131 H   0  0  0  0  0  0  0  0  0  0  0  0
   -1.6155    3.4597    0.4542 H   0  0  0  0  0  0  0  0  0  0  0  0
   -1.3847    2.8245    2.8213 H   0  0  0  0  0  0  0  0  0  0  0  0
   -1.5801   -1.3183    1.7737 H   0  0  0  0  0  0  0  0  0  0  0  0
  1  2  2  0
  2  3  1  0
  3  4  1  0
  4  5  1  0
  5  6  1  0
  6  7  1  0
  5  8  1  0
  2  9  1  0
  9 10  1  0
  9 11  1  0
 11 12  1  0
 12 13  2  0
 12 14  1  0
 14 15  1  0
 15 16  2  0
 16 17  1  0
 17 18  2  0
 18 19  1  0
 18 20  1  0
 20 21  2  0
  8  3  1  0
 21  9  1  0
 15 21  1  0
  4 22  1  0
  4 23  1  0
  5 24  1  0
  6 25  1  0
  6 26  1  0
  8 27  1  0
  8 28  1  0
 10 29  1  0
 11 30  1  0
 11 31  1  0
 14 32  1  0
 16 33  1  0
 17 34  1  0
 20 35  1  0
M  END
$$$$
