
     RDKit          3D

 49 51  0  0  0  0  0  0  0  0999 V2000
   -2.3533    6.5669    2.8137 C   0  0  0  0  0  0  0  0  0  0  0  0
   -1.1899    5.6844    2.4977 C   0  0  0  0  0  0  0  0  0  0  0  0
   -0.0659    6.2031    2.2593 O   0  0  0  0  0  0  0  0  0  0  0  0
   -1.3430    4.2576    2.5481 N   0  0  0  0  0  0  0  0  0  0  0  0
   -0.3478    3.3236    2.0949 C   0  0  0  0  0  0  0  0  0  0  0  0
    0.4607    3.5974    0.9774 C   0  0  0  0  0  0  0  0  0  0  0  0
    1.4055    2.6629    0.5432 C   0  0  0  0  0  0  0  0  0  0  0  0
    1.5527    1.4394    1.2132 C   0  0  0  0  0  0  0  0  0  0  0  0
    0.7262    1.1527    2.3103 C   0  0  0  0  0  0  0  0  0  0  0  0
   -0.2205    2.0857    2.7425 C   0  0  0  0  0  0  0  0  0  0  0  0
    2.5524    0.4286    0.7217 C   0  0  0  0  0  0  0  0  0  0  0  0
    2.0779   -0.1898   -0.5138 N   0  0  0  0  0  0  0  0  0  0  0  0
    1.0085   -1.1463   -0.5353 C   0  0  0  0  0  0  0  0  0  0  0  0
    0.5177   -1.5628    0.5489 O   0  0  0  0  0  0  0  0  0  0  0  0
    0.5193   -1.6900   -1.8595 C   0  0  0  0  0  0  0  0  0  0  0  0
   -0.9859   -2.0359   -1.8623 C   0  0  0  0  0  0  0  0  0  0  0  0
   -1.3138   -3.3527   -1.1399 C   0  0  0  0  0  0  0  0  0  0  0  0
   -0.3956   -4.4234   -1.5528 N   0  0  0  0  0  0  0  0  0  0  0  0
    1.0465   -4.1518   -1.5188 C   0  0  0  0  0  0  0  0  0  0  0  0
    1.3649   -2.8891   -2.3214 C   0  0  0  0  0  0  0  0  0  0  0  0
   -0.8603   -5.7787   -1.7192 C   0  0  0  0  0  0  0  0  0  0  0  0
   -1.9279   -6.2897   -0.9603 C   0  0  0  0  0  0  0  0  0  0  0  0
   -2.3327   -7.5729   -1.1507 N   0  0  0  0  0  0  0  0  0  0  0  0
   -1.7253   -8.3764   -2.0617 C   0  0  0  0  0  0  0  0  0  0  0  0
   -0.6607   -7.8783   -2.8124 C   0  0  0  0  0  0  0  0  0  0  0  0
   -0.2527   -6.5967   -2.6233 N   0  0  0  0  0  0  0  0  0  0  0  0
   -3.2498    6.2183    2.2591 H   0  0  0  0  0  0  0  0  0  0  0  0
   -2.1373    7.6165    2.5200 H   0  0  0  0  0  0  0  0  0  0  0  0
   -2.5598    6.5301    3.9036 H   0  0  0  0  0  0  0  0  0  0  0  0
   -2.1934    3.8787    3.0239 H   0  0  0  0  0  0  0  0  0  0  0  0
    0.3453    4.5184    0.4223 H   0  0  0  0  0  0  0  0  0  0  0  0
    2.0163    2.8880   -0.3225 H   0  0  0  0  0  0  0  0  0  0  0  0
    0.8109    0.2062    2.8295 H   0  0  0  0  0  0  0  0  0  0  0  0
   -0.8502    1.8486    3.5909 H   0  0  0  0  0  0  0  0  0  0  0  0
    3.5191    0.9421    0.5274 H   0  0  0  0  0  0  0  0  0  0  0  0
    2.7492   -0.3552    1.4854 H   0  0  0  0  0  0  0  0  0  0  0  0
    2.5374    0.0807   -1.4126 H   0  0  0  0  0  0  0  0  0  0  0  0
    0.6587   -0.8809   -2.6106 H   0  0  0  0  0  0  0  0  0  0  0  0
   -1.3211   -2.1291   -2.9191 H   0  0  0  0  0  0  0  0  0  0  0  0
   -1.5688   -1.2061   -1.4062 H   0  0  0  0  0  0  0  0  0  0  0  0
   -1.2578   -3.2227   -0.0393 H   0  0  0  0  0  0  0  0  0  0  0  0
   -2.3627   -3.6201   -1.3936 H   0  0  0  0  0  0  0  0  0  0  0  0
    1.6268   -4.9975   -1.9469 H   0  0  0  0  0  0  0  0  0  0  0  0
    1.3719   -4.0245   -0.4639 H   0  0  0  0  0  0  0  0  0  0  0  0
    1.1546   -3.0884   -3.3955 H   0  0  0  0  0  0  0  0  0  0  0  0
    2.4481   -2.6535   -2.2324 H   0  0  0  0  0  0  0  0  0  0  0  0
   -2.4236   -5.6858   -0.2124 H   0  0  0  0  0  0  0  0  0  0  0  0
   -2.0646   -9.3946   -2.1988 H   0  0  0  0  0  0  0  0  0  0  0  0
   -0.1630   -8.5040   -3.5408 H   0  0  0  0  0  0  0  0  0  0  0  0
  1  2  1  0
  2  3  2  0
  2  4  1  0
  4  5  1  0
  5  6  2  0
  6  7  1  0
  7  8  2  0
  8  9  1  0
  9 10  2  0
  8 11  1  0
 11 12  1  0
 12 13  1  0
 13 14  2  0
 13 15  1  0
 15 16  1  0
 16 17  1  0
 17 18  1  0
 18 19  1  0
 19 20  1  0
 18 21  1  0
 21 22  2  0
 22 23  1  0
 23 24  2  0
 24 25  1  0
 25 26  2  0
  5 10  1  0
 20 15  1  0
 26 21  1  0
  1 27  1  0
  1 28  1  0
  1 29  1  0
  4 30  1  0
  6 31  1  0
  7 32  1  0
  9 33  1  0
 10 34  1  0
 11 35  1  0
 11 36  1  0
 12 37  1  0
 15 38  1  0
 16 39  1  0
 16 40  1  0
 17 41  1  0
 17 42  1  0
 19 43  1  0
 19 44  1  0
 20 45  1  0
 20 46  1  0
 22 47  1  0
 24 48  1  0
 25 49  1  0
M  END
$$$$
