
     RDKit          3D

 45 49  0  0  0  0  0  0  0  0999 V2000
   -1.2328   -3.6676    0.5169 O   0  0  0  0  0  0  0  0  0  0  0  0
   -2.3779   -3.1863    1.1633 C   0  0  0  0  0  0  0  0  0  0  0  0
   -2.0314   -1.9915    2.0585 C   0  0  0  0  0  0  0  0  0  0  0  0
   -1.6200   -0.7427    1.2479 C   0  0  0  0  0  0  0  0  0  0  0  0
   -0.1644   -0.8268    0.6948 C   0  0  0  0  0  0  0  0  0  0  0  0
    0.5309    0.3534    1.2054 N   0  0  0  0  0  0  0  0  0  0  0  0
    1.9134    0.7014    0.8808 C   0  0  0  0  0  0  0  0  0  0  0  0
    1.9546    1.7753   -0.2074 C   0  0  0  0  0  0  0  0  0  0  0  0
    1.4279    1.4424   -1.5961 C   0  0  0  0  0  0  0  0  0  0  0  0
    2.3433    2.6136   -1.8889 C   0  0  0  0  0  0  0  0  0  0  0  0
    3.3006    2.1486   -0.8103 C   0  0  0  0  0  0  0  0  0  0  0  0
    1.6118    3.7044   -1.1245 C   0  0  0  0  0  0  0  0  0  0  0  0
    1.3580    3.0240    0.0996 O   0  0  0  0  0  0  0  0  0  0  0  0
    2.8349    2.8555   -3.2798 C   0  0  0  0  0  0  0  0  0  0  0  0
    4.0367    3.3871   -3.5768 N   0  0  0  0  0  0  0  0  0  0  0  0
    4.0413    3.4933   -4.8955 N   0  0  0  0  0  0  0  0  0  0  0  0
    2.8878    3.0551   -5.3695 N   0  0  0  0  0  0  0  0  0  0  0  0
    2.0985    2.6542   -4.3884 N   0  0  0  0  0  0  0  0  0  0  0  0
   -0.3462    1.0741    2.0533 C   0  0  0  0  0  0  0  0  0  0  0  0
   -0.0627    2.2432    2.7678 C   0  0  0  0  0  0  0  0  0  0  0  0
   -1.0872    2.8237    3.5317 C   0  0  0  0  0  0  0  0  0  0  0  0
   -2.3653    2.2355    3.5663 C   0  0  0  0  0  0  0  0  0  0  0  0
   -2.6212    1.0584    2.8453 C   0  0  0  0  0  0  0  0  0  0  0  0
   -1.5805    0.4839    2.1083 C   0  0  0  0  0  0  0  0  0  0  0  0
   -1.5340   -4.4244   -0.0498 H   0  0  0  0  0  0  0  0  0  0  0  0
   -3.1436   -2.8868    0.4128 H   0  0  0  0  0  0  0  0  0  0  0  0
   -2.8073   -3.9934    1.7978 H   0  0  0  0  0  0  0  0  0  0  0  0
   -1.2295   -2.2740    2.7757 H   0  0  0  0  0  0  0  0  0  0  0  0
   -2.9386   -1.7565    2.6561 H   0  0  0  0  0  0  0  0  0  0  0  0
   -2.3375   -0.5652    0.4163 H   0  0  0  0  0  0  0  0  0  0  0  0
   -0.1728   -0.8103   -0.4161 H   0  0  0  0  0  0  0  0  0  0  0  0
    0.3694   -1.7367    1.0431 H   0  0  0  0  0  0  0  0  0  0  0  0
    2.4480   -0.2033    0.5181 H   0  0  0  0  0  0  0  0  0  0  0  0
    2.4398    1.0592    1.7906 H   0  0  0  0  0  0  0  0  0  0  0  0
    1.7949    0.4690   -1.9996 H   0  0  0  0  0  0  0  0  0  0  0  0
    0.3347    1.6093   -1.7435 H   0  0  0  0  0  0  0  0  0  0  0  0
    3.9246    1.2726   -1.1077 H   0  0  0  0  0  0  0  0  0  0  0  0
    3.8654    2.9407   -0.2643 H   0  0  0  0  0  0  0  0  0  0  0  0
    2.2483    4.6015   -0.9547 H   0  0  0  0  0  0  0  0  0  0  0  0
    0.6591    4.0009   -1.6179 H   0  0  0  0  0  0  0  0  0  0  0  0
    2.6322    3.0352   -6.3811 H   0  0  0  0  0  0  0  0  0  0  0  0
    0.9174    2.6989    2.7372 H   0  0  0  0  0  0  0  0  0  0  0  0
   -0.8952    3.7301    4.0909 H   0  0  0  0  0  0  0  0  0  0  0  0
   -3.1541    2.6932    4.1490 H   0  0  0  0  0  0  0  0  0  0  0  0
   -3.6053    0.6088    2.8613 H   0  0  0  0  0  0  0  0  0  0  0  0
  1  2  1  0
  2  3  1  0
  3  4  1  0
  4  5  1  0
  5  6  1  0
  6  7  1  0
  7  8  1  0
  8  9  1  0
  9 10  1  0
 10 11  1  0
 10 12  1  0
 12 13  1  0
 10 14  1  0
 14 15  1  0
 15 16  2  0
 16 17  1  0
 17 18  1  0
  6 19  1  0
 19 20  2  0
 20 21  1  0
 21 22  2  0
 22 23  1  0
 23 24  2  0
 24  4  1  0
 11  8  1  0
 13  8  1  0
 14 18  2  0
 19 24  1  0
  1 25  1  0
  2 26  1  0
  2 27  1  0
  3 28  1  0
  3 29  1  0
  4 30  1  0
  5 31  1  0
  5 32  1  0
  7 33  1  0
  7 34  1  0
  9 35  1  0
  9 36  1  0
 11 37  1  0
 11 38  1  0
 12 39  1  0
 12 40  1  0
 17 41  1  0
 20 42  1  0
 21 43  1  0
 22 44  1  0
 23 45  1  0
M  END
$$$$
