
     RDKit          3D

 46 47  0  0  0  0  0  0  0  0999 V2000
   -0.3962   -5.4390    0.5209 C   0  0  0  0  0  0  0  0  0  0  0  0
   -0.4397   -4.4273    1.6545 C   0  0  0  0  0  0  0  0  0  0  0  0
    0.1368   -3.2009    1.2204 O   0  0  0  0  0  0  0  0  0  0  0  0
    0.2357   -2.0781    2.0477 C   0  0  0  0  0  0  0  0  0  0  0  0
   -0.1731   -2.1304    3.2392 O   0  0  0  0  0  0  0  0  0  0  0  0
    0.8142   -0.8337    1.5049 C   0  0  0  0  0  0  0  0  0  0  0  0
    1.2944   -0.7026    0.2144 C   0  0  0  0  0  0  0  0  0  0  0  0
    1.6926    0.6114    0.0876 C   0  0  0  0  0  0  0  0  0  0  0  0
    1.4635    1.2320    1.2967 C   0  0  0  0  0  0  0  0  0  0  0  0
    0.9258    0.3476    2.1606 N   0  0  0  0  0  0  0  0  0  0  0  0
    0.5274    0.6515    3.5335 C   0  0  0  0  0  0  0  0  0  0  0  0
    2.3272    1.3593   -1.3683 S   0  0  0  0  0  0  0  0  0  0  0  0
    3.2829    2.4640   -1.0144 O   0  0  0  0  0  0  0  0  0  0  0  0
    3.0781    0.3156   -2.1474 O   0  0  0  0  0  0  0  0  0  0  0  0
    1.0344    1.9752   -2.3526 N   0  0  0  0  0  0  0  0  0  0  0  0
   -0.0170    2.8264   -1.8509 C   0  0  0  0  0  0  0  0  0  0  0  0
    0.2442    3.7004   -0.7777 C   0  0  0  0  0  0  0  0  0  0  0  0
   -0.7523    4.5325   -0.2696 C   0  0  0  0  0  0  0  0  0  0  0  0
   -2.0260    4.5188   -0.8292 C   0  0  0  0  0  0  0  0  0  0  0  0
   -2.9947    5.3241   -0.3281 F   0  0  0  0  0  0  0  0  0  0  0  0
   -2.3052    3.6778   -1.9052 C   0  0  0  0  0  0  0  0  0  0  0  0
   -1.3145    2.8325   -2.4383 C   0  0  0  0  0  0  0  0  0  0  0  0
   -1.7187    1.9116   -3.5682 C   0  0  0  0  0  0  0  0  0  0  0  0
   -2.4631    0.4154   -2.9382 S   0  0  0  0  0  0  0  0  0  0  0  0
   -1.3548   -0.4288   -1.8347 C   0  0  0  0  0  0  0  0  0  0  0  0
   -2.7932   -0.4893   -4.0909 O   0  0  0  0  0  0  0  0  0  0  0  0
   -3.7287    0.7550   -2.2024 O   0  0  0  0  0  0  0  0  0  0  0  0
    0.6564   -5.6259    0.2198 H   0  0  0  0  0  0  0  0  0  0  0  0
   -0.9627   -5.0542   -0.3537 H   0  0  0  0  0  0  0  0  0  0  0  0
   -0.8522   -6.3945    0.8539 H   0  0  0  0  0  0  0  0  0  0  0  0
    0.1301   -4.8233    2.5228 H   0  0  0  0  0  0  0  0  0  0  0  0
   -1.4959   -4.2592    1.9557 H   0  0  0  0  0  0  0  0  0  0  0  0
    1.3263   -1.4656   -0.5524 H   0  0  0  0  0  0  0  0  0  0  0  0
    1.6683    2.2688    1.5289 H   0  0  0  0  0  0  0  0  0  0  0  0
    1.0720   -0.0103    4.2395 H   0  0  0  0  0  0  0  0  0  0  0  0
    0.7688    1.7060    3.7874 H   0  0  0  0  0  0  0  0  0  0  0  0
   -0.5674    0.5046    3.6481 H   0  0  0  0  0  0  0  0  0  0  0  0
    1.0409    1.6684   -3.3465 H   0  0  0  0  0  0  0  0  0  0  0  0
    1.2266    3.7605   -0.3365 H   0  0  0  0  0  0  0  0  0  0  0  0
   -0.5324    5.1937    0.5587 H   0  0  0  0  0  0  0  0  0  0  0  0
   -3.3044    3.6797   -2.3232 H   0  0  0  0  0  0  0  0  0  0  0  0
   -2.4632    2.4212   -4.2176 H   0  0  0  0  0  0  0  0  0  0  0  0
   -0.8780    1.6525   -4.2363 H   0  0  0  0  0  0  0  0  0  0  0  0
   -1.7937   -1.4045   -1.5389 H   0  0  0  0  0  0  0  0  0  0  0  0
   -1.1973    0.1905   -0.9278 H   0  0  0  0  0  0  0  0  0  0  0  0
   -0.3852   -0.6009   -2.3454 H   0  0  0  0  0  0  0  0  0  0  0  0
  1  2  1  0
  2  3  1  0
  3  4  1  0
  4  5  2  0
  4  6  1  0
  6  7  2  0
  7  8  1  0
  8  9  2  0
  9 10  1  0
 10 11  1  0
  8 12  1  0
 12 13  2  0
 12 14  2  0
 12 15  1  0
 15 16  1  0
 16 17  2  0
 17 18  1  0
 18 19  2  0
 19 20  1  0
 19 21  1  0
 21 22  2  0
 22 23  1  0
 23 24  1  0
 24 25  1  0
 24 26  2  0
 24 27  2  0
 10  6  1  0
 16 22  1  0
  1 28  1  0
  1 29  1  0
  1 30  1  0
  2 31  1  0
  2 32  1  0
  7 33  1  0
  9 34  1  0
 11 35  1  0
 11 36  1  0
 11 37  1  0
 15 38  1  0
 17 39  1  0
 18 40  1  0
 21 41  1  0
 23 42  1  0
 23 43  1  0
 25 44  1  0
 25 45  1  0
 25 46  1  0
M  END
$$$$
