
     RDKit          3D

 54 56  0  0  0  0  0  0  0  0999 V2000
   -4.0290    0.7091   -2.7005 C   0  0  0  0  0  0  0  0  0  0  0  0
   -3.5089    1.7724   -1.9040 O   0  0  0  0  0  0  0  0  0  0  0  0
   -2.1442    1.9896   -1.6633 C   0  0  0  0  0  0  0  0  0  0  0  0
   -1.7814    3.0387   -0.8164 C   0  0  0  0  0  0  0  0  0  0  0  0
   -0.4352    3.3240   -0.5648 C   0  0  0  0  0  0  0  0  0  0  0  0
    0.5821    2.5701   -1.1867 C   0  0  0  0  0  0  0  0  0  0  0  0
    0.2125    1.4960   -2.0130 C   0  0  0  0  0  0  0  0  0  0  0  0
   -1.1351    1.2052   -2.2499 C   0  0  0  0  0  0  0  0  0  0  0  0
    2.0612    2.8160   -0.9193 C   0  0  2  0  0  0  0  0  0  0  0  0
    2.5007    1.9727    0.1937 N   0  0  0  0  0  0  0  0  0  0  0  0
    3.2125    0.7373   -0.0073 C   0  0  0  0  0  0  0  0  0  0  0  0
    3.6854    0.4491   -1.1434 O   0  0  0  0  0  0  0  0  0  0  0  0
    3.3875   -0.2076    1.1153 C   0  0  0  0  0  0  0  0  0  0  0  0
    3.8269    0.2796    2.3582 C   0  0  0  0  0  0  0  0  0  0  0  0
    3.9924   -0.5896    3.4394 C   0  0  0  0  0  0  0  0  0  0  0  0
    3.7113   -1.9499    3.2965 C   0  0  0  0  0  0  0  0  0  0  0  0
    3.2636   -2.4455    2.0715 C   0  0  0  0  0  0  0  0  0  0  0  0
    3.0966   -1.5862    0.9761 C   0  0  0  0  0  0  0  0  0  0  0  0
    2.5102   -2.2810   -0.5803 S   0  0  0  0  0  0  0  0  0  0  0  0
    0.7591   -1.7966   -0.3310 C   0  0  0  0  0  0  0  0  0  0  0  0
   -0.0194   -2.8084    0.4708 C   0  0  0  0  0  0  0  0  0  0  0  0
    0.5443   -3.8576    0.8874 O   0  0  0  0  0  0  0  0  0  0  0  0
   -1.4255   -2.6110    0.7245 N   0  0  0  0  0  0  0  0  0  0  0  0
   -2.2423   -3.5777    1.4379 C   0  0  0  0  0  0  0  0  0  0  0  0
   -3.6827   -3.1000    1.2739 C   0  0  0  0  0  0  0  0  0  0  0  0
   -3.5940   -1.6498    0.7917 C   0  0  0  0  0  0  0  0  0  0  0  0
   -2.1966   -1.4943    0.2018 C   0  0  0  0  0  0  0  0  0  0  0  0
    2.4235    4.2890   -0.6494 C   0  0  0  0  0  0  0  0  0  0  0  0
    2.0801    4.6628    0.6351 F   0  0  0  0  0  0  0  0  0  0  0  0
    3.7907    4.4676   -0.8053 F   0  0  0  0  0  0  0  0  0  0  0  0
   -3.6128    0.7588   -3.7330 H   0  0  0  0  0  0  0  0  0  0  0  0
   -5.1302    0.8112   -2.7599 H   0  0  0  0  0  0  0  0  0  0  0  0
   -3.7892   -0.2677   -2.2335 H   0  0  0  0  0  0  0  0  0  0  0  0
   -2.5476    3.6441   -0.3493 H   0  0  0  0  0  0  0  0  0  0  0  0
   -0.2042    4.1386    0.1156 H   0  0  0  0  0  0  0  0  0  0  0  0
    0.9702    0.8740   -2.4695 H   0  0  0  0  0  0  0  0  0  0  0  0
   -1.3798    0.3727   -2.8971 H   0  0  0  0  0  0  0  0  0  0  0  0
    2.6146    2.5358   -1.8429 H   0  0  0  0  0  0  0  0  0  0  0  0
    2.1108    2.1715    1.1428 H   0  0  0  0  0  0  0  0  0  0  0  0
    4.0602    1.3313    2.4865 H   0  0  0  0  0  0  0  0  0  0  0  0
    4.3481   -0.2079    4.3879 H   0  0  0  0  0  0  0  0  0  0  0  0
    3.8437   -2.6204    4.1357 H   0  0  0  0  0  0  0  0  0  0  0  0
    3.0562   -3.5023    1.9717 H   0  0  0  0  0  0  0  0  0  0  0  0
    0.6916   -0.7998    0.1588 H   0  0  0  0  0  0  0  0  0  0  0  0
    0.2955   -1.7082   -1.3357 H   0  0  0  0  0  0  0  0  0  0  0  0
   -2.1105   -4.5943    1.0049 H   0  0  0  0  0  0  0  0  0  0  0  0
   -1.9597   -3.5866    2.5127 H   0  0  0  0  0  0  0  0  0  0  0  0
   -4.1949   -3.7211    0.5047 H   0  0  0  0  0  0  0  0  0  0  0  0
   -4.2450   -3.1714    2.2323 H   0  0  0  0  0  0  0  0  0  0  0  0
   -4.3799   -1.4240    0.0407 H   0  0  0  0  0  0  0  0  0  0  0  0
   -3.7104   -0.9608    1.6599 H   0  0  0  0  0  0  0  0  0  0  0  0
   -1.7487   -0.5246    0.5115 H   0  0  0  0  0  0  0  0  0  0  0  0
   -2.2322   -1.5597   -0.9043 H   0  0  0  0  0  0  0  0  0  0  0  0
    1.9001    4.9512   -1.3712 H   0  0  0  0  0  0  0  0  0  0  0  0
  1  2  1  0
  2  3  1  0
  3  4  2  0
  4  5  1  0
  5  6  2  0
  6  7  1  0
  7  8  2  0
  6  9  1  0
  9 10  1  0
 10 11  1  0
 11 12  2  0
 11 13  1  0
 13 14  2  0
 14 15  1  0
 15 16  2  0
 16 17  1  0
 17 18  2  0
 18 19  1  0
 19 20  1  0
 20 21  1  0
 21 22  2  0
 21 23  1  0
 23 24  1  0
 24 25  1  0
 25 26  1  0
 26 27  1  0
  9 28  1  0
 28 29  1  0
 28 30  1  0
  3  8  1  0
 13 18  1  0
 27 23  1  0
  1 31  1  0
  1 32  1  0
  1 33  1  0
  4 34  1  0
  5 35  1  0
  7 36  1  0
  8 37  1  0
  9 38  1  6
 10 39  1  0
 14 40  1  0
 15 41  1  0
 16 42  1  0
 17 43  1  0
 20 44  1  0
 20 45  1  0
 24 46  1  0
 24 47  1  0
 25 48  1  0
 25 49  1  0
 26 50  1  0
 26 51  1  0
 27 52  1  0
 27 53  1  0
 28 54  1  0
M  END
$$$$
