
     RDKit          3D

 41 43  0  0  0  0  0  0  0  0999 V2000
   -6.5801    2.6621   -1.6787 C   0  0  0  0  0  0  0  0  0  0  0  0
   -6.0520    2.1869   -0.4447 O   0  0  0  0  0  0  0  0  0  0  0  0
   -4.6830    2.0887   -0.1549 C   0  0  0  0  0  0  0  0  0  0  0  0
   -3.6869    2.4590   -1.0778 C   0  0  0  0  0  0  0  0  0  0  0  0
   -2.3347    2.3423   -0.7413 C   0  0  0  0  0  0  0  0  0  0  0  0
   -1.9549    1.8548    0.5202 C   0  0  0  0  0  0  0  0  0  0  0  0
   -2.9507    1.4862    1.4385 C   0  0  0  0  0  0  0  0  0  0  0  0
   -4.3021    1.6033    1.1010 C   0  0  0  0  0  0  0  0  0  0  0  0
   -0.5284    1.7283    0.8809 C   0  0  0  0  0  0  0  0  0  0  0  0
    0.4876    2.0593    0.0536 N   0  0  0  0  0  0  0  0  0  0  0  0
    1.5814    1.7871    0.7899 C   0  0  0  0  0  0  0  0  0  0  0  0
    1.2015    1.2948    2.0180 C   0  0  0  0  0  0  0  0  0  0  0  0
   -0.1072    1.2756    2.0429 O   0  0  0  0  0  0  0  0  0  0  0  0
    2.9870    1.9368    0.2913 C   0  0  0  0  0  0  0  0  0  0  0  0
    3.3639    0.7942   -0.6582 C   0  0  0  0  0  0  0  0  0  0  0  0
    3.4011   -0.4931    0.0376 N   0  0  0  0  0  0  0  0  0  0  0  0
    3.6403   -1.7172   -0.6731 C   0  0  0  0  0  0  0  0  0  0  0  0
    4.0253   -1.6736   -1.8740 O   0  0  0  0  0  0  0  0  0  0  0  0
    3.4557   -3.0331   -0.0157 C   0  0  0  0  0  0  0  0  0  0  0  0
    4.1228   -4.1703   -0.5043 C   0  0  0  0  0  0  0  0  0  0  0  0
    3.9493   -5.3795    0.0934 N   0  0  0  0  0  0  0  0  0  0  0  0
    3.1304   -5.5365    1.1660 C   0  0  0  0  0  0  0  0  0  0  0  0
    2.4362   -4.4410    1.6801 C   0  0  0  0  0  0  0  0  0  0  0  0
    1.6066   -4.5943    2.7415 F   0  0  0  0  0  0  0  0  0  0  0  0
    2.5965   -3.1875    1.0863 C   0  0  0  0  0  0  0  0  0  0  0  0
   -6.2588    3.7107   -1.8530 H   0  0  0  0  0  0  0  0  0  0  0  0
   -6.2406    2.0141   -2.5141 H   0  0  0  0  0  0  0  0  0  0  0  0
   -7.6881    2.6328   -1.6341 H   0  0  0  0  0  0  0  0  0  0  0  0
   -3.9463    2.8378   -2.0570 H   0  0  0  0  0  0  0  0  0  0  0  0
   -1.5874    2.6336   -1.4689 H   0  0  0  0  0  0  0  0  0  0  0  0
   -2.6853    1.1071    2.4177 H   0  0  0  0  0  0  0  0  0  0  0  0
   -5.0586    1.3149    1.8198 H   0  0  0  0  0  0  0  0  0  0  0  0
    1.8464    0.9732    2.8250 H   0  0  0  0  0  0  0  0  0  0  0  0
    3.6966    1.9676    1.1467 H   0  0  0  0  0  0  0  0  0  0  0  0
    3.0713    2.9019   -0.2527 H   0  0  0  0  0  0  0  0  0  0  0  0
    2.6287    0.7469   -1.4916 H   0  0  0  0  0  0  0  0  0  0  0  0
    4.3661    1.0021   -1.0910 H   0  0  0  0  0  0  0  0  0  0  0  0
    3.2922   -0.5190    1.0760 H   0  0  0  0  0  0  0  0  0  0  0  0
    4.7894   -4.0969   -1.3539 H   0  0  0  0  0  0  0  0  0  0  0  0
    3.0149   -6.5138    1.6156 H   0  0  0  0  0  0  0  0  0  0  0  0
    2.0297   -2.3523    1.4758 H   0  0  0  0  0  0  0  0  0  0  0  0
  1  2  1  0
  2  3  1  0
  3  4  2  0
  4  5  1  0
  5  6  2  0
  6  7  1  0
  7  8  2  0
  6  9  1  0
  9 10  2  0
 10 11  1  0
 11 12  2  0
 12 13  1  0
 11 14  1  0
 14 15  1  0
 15 16  1  0
 16 17  1  0
 17 18  2  0
 17 19  1  0
 19 20  2  0
 20 21  1  0
 21 22  2  0
 22 23  1  0
 23 24  1  0
 23 25  2  0
  3  8  1  0
 13  9  1  0
 25 19  1  0
  1 26  1  0
  1 27  1  0
  1 28  1  0
  4 29  1  0
  5 30  1  0
  7 31  1  0
  8 32  1  0
 12 33  1  0
 14 34  1  0
 14 35  1  0
 15 36  1  0
 15 37  1  0
 16 38  1  0
 20 39  1  0
 22 40  1  0
 25 41  1  0
M  END
$$$$
