
     RDKit          3D

  0  0  0  0  0  0  0  0  0  0999 V3000
M  V30 BEGIN CTAB
M  V30 COUNTS 40 43 0 0 0
M  V30 BEGIN ATOM
M  V30 1 O -2.167945 2.277403 0.254014 0
M  V30 2 C -0.954517 1.987698 0.071909 0
M  V30 3 N -0.589205 0.685743 -0.406033 0
M  V30 4 C -1.523570 -0.441269 -0.411024 0
M  V30 5 C -2.131914 -0.632541 -1.795718 0
M  V30 6 C -2.398920 -2.124320 -1.924753 0
M  V30 7 C -1.353188 -2.811189 -1.040983 0 CFG=2
M  V30 8 C -1.896827 -3.596251 0.155299 0
M  V30 9 C -1.326887 -2.546651 1.100844 0
M  V30 10 C -0.793357 -1.757916 -0.098184 0 CFG=2
M  V30 11 C 0.074975 3.015239 0.308443 0
M  V30 12 C -0.093806 4.376436 0.161046 0
M  V30 13 N 1.091489 4.976965 0.364373 0
M  V30 14 N 2.012520 4.069927 0.647482 0
M  V30 15 C 1.420311 2.858486 0.628854 0
M  V30 16 C 2.132358 1.612122 0.979553 0
M  V30 17 C 3.453300 1.417023 0.544438 0
M  V30 18 C 4.139633 0.244810 0.876706 0
M  V30 19 C 3.518856 -0.733582 1.657655 0
M  V30 20 C 2.213400 -0.537490 2.115900 0
M  V30 21 F 1.617877 -1.479566 2.887690 0
M  V30 22 C 1.523798 0.633341 1.785641 0
M  V30 23 H 0.336169 0.571446 -0.878909 0
M  V30 24 H -2.343785 -0.263332 0.319686 0
M  V30 25 H -3.066911 -0.042447 -1.911460 0
M  V30 26 H -1.407880 -0.323661 -2.582940 0
M  V30 27 H -3.435556 -2.346213 -1.590195 0
M  V30 28 H -2.292133 -2.450480 -2.981714 0
M  V30 29 H -0.559211 -3.347847 -1.606721 0
M  V30 30 H -1.396088 -4.582091 0.271593 0
M  V30 31 H -3.005499 -3.656429 0.208801 0
M  V30 32 H -0.506565 -2.953665 1.731151 0
M  V30 33 H -2.115744 -2.030140 1.689253 0
M  V30 34 H 0.318320 -1.707227 -0.134344 0
M  V30 35 H -1.006493 4.892233 -0.108117 0
M  V30 36 H 1.276548 6.002590 0.307276 0
M  V30 37 H 3.947038 2.164767 -0.064118 0
M  V30 38 H 5.153520 0.095134 0.528720 0
M  V30 39 H 4.052913 -1.639633 1.913383 0
M  V30 40 H 0.521305 0.779205 2.167564 0
M  V30 END ATOM
M  V30 BEGIN BOND
M  V30 1 2 1 2
M  V30 2 1 2 3
M  V30 3 1 3 4
M  V30 4 1 4 5
M  V30 5 1 5 6
M  V30 6 1 6 7
M  V30 7 1 7 8
M  V30 8 1 8 9
M  V30 9 1 9 10
M  V30 10 1 2 11
M  V30 11 2 11 12
M  V30 12 1 12 13
M  V30 13 1 13 14
M  V30 14 2 14 15
M  V30 15 1 15 16
M  V30 16 2 16 17
M  V30 17 1 17 18
M  V30 18 2 18 19
M  V30 19 1 19 20
M  V30 20 1 20 21
M  V30 21 2 20 22
M  V30 22 1 10 4
M  V30 23 1 10 7
M  V30 24 1 15 11
M  V30 25 1 16 22
M  V30 26 1 3 23
M  V30 27 1 4 24
M  V30 28 1 5 25
M  V30 29 1 5 26
M  V30 30 1 6 27
M  V30 31 1 6 28
M  V30 32 1 7 29 CFG=3
M  V30 33 1 8 30
M  V30 34 1 8 31
M  V30 35 1 9 32
M  V30 36 1 9 33
M  V30 37 1 10 34 CFG=1
M  V30 38 1 12 35
M  V30 39 1 13 36
M  V30 40 1 17 37
M  V30 41 1 18 38
M  V30 42 1 19 39
M  V30 43 1 22 40
M  V30 END BOND
M  V30 BEGIN COLLECTION
M  V30 MDLV30/STERAC1 ATOMS=(2 7 10)
M  V30 END COLLECTION
M  V30 END CTAB
M  END
>  <_CXSMILES_Data>  (1) 
|&1:6,9,r|

$$$$
