
     RDKit          3D

 55 60  0  0  0  0  0  0  0  0999 V2000
   -5.2010    1.7373    4.9022 C   0  0  0  0  0  0  0  0  0  0  0  0
   -4.3042    1.0241    5.8611 C   0  0  0  0  0  0  0  0  0  0  0  0
   -4.4202    0.9923    7.2498 C   0  0  0  0  0  0  0  0  0  0  0  0
   -3.4684    0.1924    7.7852 N   0  0  0  0  0  0  0  0  0  0  0  0
   -2.7687   -0.2825    6.7423 C   0  0  0  0  0  0  0  0  0  0  0  0
   -1.7301   -1.1500    6.8065 N   0  0  0  0  0  0  0  0  0  0  0  0
   -1.1324   -1.5601    5.6479 C   0  0  0  0  0  0  0  0  0  0  0  0
   -1.5854   -1.0856    4.3858 C   0  0  0  0  0  0  0  0  0  0  0  0
   -2.6793   -0.1903    4.3451 C   0  0  0  0  0  0  0  0  0  0  0  0
   -3.2453    0.1943    5.5561 C   0  0  0  0  0  0  0  0  0  0  0  0
   -0.9274   -1.5439    3.1407 C   0  0  0  0  0  0  0  0  0  0  0  0
   -0.2960   -2.6364    3.1392 O   0  0  0  0  0  0  0  0  0  0  0  0
   -0.9827   -0.7573    1.9417 N   0  0  0  0  0  0  0  0  0  0  0  0
   -0.4155   -1.2466    0.6903 C   0  0  1  0  0  0  0  0  0  0  0  0
   -1.3302   -2.2308   -0.0263 C   0  0  2  0  0  0  0  0  0  0  0  0
   -0.6625   -3.1453   -1.0427 C   0  0  0  0  0  0  0  0  0  0  0  0
   -0.1215   -2.2789   -2.0779 N   0  0  0  0  0  0  0  0  0  0  0  0
   -0.4267   -0.8724   -1.8573 C   0  0  0  0  0  0  0  0  0  0  0  0
   -1.1905   -0.8056   -0.5435 C   0  0  2  0  0  0  0  0  0  0  0  0
    0.4299   -2.7929   -3.3031 C   0  0  0  0  0  0  0  0  0  0  0  0
    0.1369   -3.9619   -3.6735 O   0  0  0  0  0  0  0  0  0  0  0  0
    1.3317   -1.9816   -4.1449 C   0  0  0  0  0  0  0  0  0  0  0  0
    1.1966   -2.0104   -5.5569 C   0  0  0  0  0  0  0  0  0  0  0  0
    2.0541   -1.2539   -6.3758 C   0  0  0  0  0  0  0  0  0  0  0  0
    3.0433   -0.4963   -5.7570 C   0  0  0  0  0  0  0  0  0  0  0  0
    3.9484    0.3047   -6.3490 N   0  0  0  0  0  0  0  0  0  0  0  0
    4.6487    0.7945   -5.2936 C   0  0  0  0  0  0  0  0  0  0  0  0
    5.7064    1.7416   -5.4529 N   0  0  0  0  0  0  0  0  0  0  0  0
    4.2299    0.3234   -4.0894 N   0  0  0  0  0  0  0  0  0  0  0  0
    4.7153    0.7030   -2.7633 C   0  0  0  0  0  0  0  0  0  0  0  0
    3.1980   -0.4811   -4.4004 C   0  0  0  0  0  0  0  0  0  0  0  0
    2.3616   -1.2142   -3.5554 C   0  0  0  0  0  0  0  0  0  0  0  0
   -5.8019    2.5041    5.4348 H   0  0  0  0  0  0  0  0  0  0  0  0
   -4.5938    2.2391    4.1202 H   0  0  0  0  0  0  0  0  0  0  0  0
   -5.8853    1.0070    4.4223 H   0  0  0  0  0  0  0  0  0  0  0  0
   -5.1657    1.5168    7.8331 H   0  0  0  0  0  0  0  0  0  0  0  0
   -3.3206   -0.0211    8.7966 H   0  0  0  0  0  0  0  0  0  0  0  0
   -0.2993   -2.2489    5.7070 H   0  0  0  0  0  0  0  0  0  0  0  0
   -3.0893    0.1744    3.4126 H   0  0  0  0  0  0  0  0  0  0  0  0
   -1.2992    0.2369    1.9847 H   0  0  0  0  0  0  0  0  0  0  0  0
    0.6827   -1.4075    0.6223 H   0  0  0  0  0  0  0  0  0  0  0  0
   -2.3304   -2.4591    0.4013 H   0  0  0  0  0  0  0  0  0  0  0  0
    0.1523   -3.7298   -0.5648 H   0  0  0  0  0  0  0  0  0  0  0  0
   -1.4205   -3.8321   -1.4759 H   0  0  0  0  0  0  0  0  0  0  0  0
   -1.0638   -0.4895   -2.6825 H   0  0  0  0  0  0  0  0  0  0  0  0
    0.4986   -0.2670   -1.7813 H   0  0  0  0  0  0  0  0  0  0  0  0
   -2.1061   -0.1871   -0.4244 H   0  0  0  0  0  0  0  0  0  0  0  0
    0.4190   -2.6059   -6.0188 H   0  0  0  0  0  0  0  0  0  0  0  0
    1.9459   -1.2602   -7.4525 H   0  0  0  0  0  0  0  0  0  0  0  0
    5.9816    2.0596   -6.4091 H   0  0  0  0  0  0  0  0  0  0  0  0
    6.2048    2.1443   -4.6295 H   0  0  0  0  0  0  0  0  0  0  0  0
    4.4321   -0.0553   -2.0056 H   0  0  0  0  0  0  0  0  0  0  0  0
    5.8230    0.7711   -2.7668 H   0  0  0  0  0  0  0  0  0  0  0  0
    4.2846    1.6850   -2.4764 H   0  0  0  0  0  0  0  0  0  0  0  0
    2.5123   -1.2152   -2.4846 H   0  0  0  0  0  0  0  0  0  0  0  0
  1  2  1  0
  2  3  2  0
  3  4  1  0
  4  5  1  0
  5  6  2  0
  6  7  1  0
  7  8  2  0
  8  9  1  0
  9 10  2  0
  8 11  1  0
 11 12  2  0
 11 13  1  0
 13 14  1  0
 14 15  1  0
 15 16  1  0
 16 17  1  0
 17 18  1  0
 18 19  1  0
 17 20  1  0
 20 21  2  0
 20 22  1  0
 22 23  2  0
 23 24  1  0
 24 25  2  0
 25 26  1  0
 26 27  2  0
 27 28  1  0
 27 29  1  0
 29 30  1  0
 29 31  1  0
 31 32  2  0
 10  2  1  0
  5 10  1  0
 19 14  1  0
 19 15  1  0
 22 32  1  0
 25 31  1  0
  1 33  1  0
  1 34  1  0
  1 35  1  0
  3 36  1  0
  4 37  1  0
  7 38  1  0
  9 39  1  0
 13 40  1  0
 14 41  1  6
 15 42  1  1
 16 43  1  0
 16 44  1  0
 18 45  1  0
 18 46  1  0
 19 47  1  1
 23 48  1  0
 24 49  1  0
 28 50  1  0
 28 51  1  0
 30 52  1  0
 30 53  1  0
 30 54  1  0
 32 55  1  0
M  END
$$$$
