
     RDKit          3D

 55 58  0  0  0  0  0  0  0  0999 V2000
   -0.4313    0.6457   -4.5191 O   0  0  0  0  0  0  0  0  0  0  0  0
   -0.8646    0.2247   -3.4112 C   0  0  0  0  0  0  0  0  0  0  0  0
   -2.1787    0.6027   -2.9694 N   0  0  0  0  0  0  0  0  0  0  0  0
   -2.9068    1.7265   -3.5664 C   0  0  0  0  0  0  0  0  0  0  0  0
   -2.6530    3.0146   -2.7996 C   0  0  0  0  0  0  0  0  0  0  0  0
   -3.8889    3.8866   -3.0620 C   0  0  0  0  0  0  0  0  0  0  0  0
   -4.4351    4.5726   -1.8073 C   0  0  0  0  0  0  0  0  0  0  0  0
   -5.5783    3.7921   -1.3350 N   0  0  0  0  0  0  0  0  0  0  0  0
   -6.1404    3.1621   -2.5285 C   0  0  0  0  0  0  0  0  0  0  0  0
   -4.9975    2.9506   -3.5225 C   0  0  0  0  0  0  0  0  0  0  0  0
   -4.4154    1.5317   -3.4940 C   0  0  0  0  0  0  0  0  0  0  0  0
   -0.0177   -0.6790   -2.5990 C   0  0  0  0  0  0  0  0  0  0  0  0
   -0.1264   -0.7070   -1.1972 C   0  0  0  0  0  0  0  0  0  0  0  0
    0.6818   -1.5605   -0.4401 C   0  0  0  0  0  0  0  0  0  0  0  0
    1.6165   -2.4012   -1.0734 C   0  0  0  0  0  0  0  0  0  0  0  0
    1.7323   -2.3647   -2.4671 C   0  0  0  0  0  0  0  0  0  0  0  0
    0.9293   -1.5079   -3.2250 C   0  0  0  0  0  0  0  0  0  0  0  0
    2.4449   -3.2791   -0.3594 O   0  0  0  0  0  0  0  0  0  0  0  0
    2.4614   -3.3976    1.0619 C   0  0  0  0  0  0  0  0  0  0  0  0
    3.4890   -4.4642    1.4873 C   0  0  0  0  0  0  0  0  0  0  0  0
    4.9274   -4.1151    1.0407 C   0  0  0  0  0  0  0  0  0  0  0  0
    5.5430   -2.9810    1.8731 C   0  0  0  0  0  0  0  0  0  0  0  0
    5.4944   -3.3048    3.3700 C   0  0  0  0  0  0  0  0  0  0  0  0
    4.0611   -3.5963    3.8275 C   0  0  0  0  0  0  0  0  0  0  0  0
    3.4383   -4.7352    3.0069 C   0  0  0  0  0  0  0  0  0  0  0  0
   -2.5779    0.1450   -2.1186 H   0  0  0  0  0  0  0  0  0  0  0  0
   -2.6187    1.8639   -4.6337 H   0  0  0  0  0  0  0  0  0  0  0  0
   -2.5434    2.7856   -1.7142 H   0  0  0  0  0  0  0  0  0  0  0  0
   -1.7254    3.5134   -3.1578 H   0  0  0  0  0  0  0  0  0  0  0  0
   -3.6604    4.6385   -3.8515 H   0  0  0  0  0  0  0  0  0  0  0  0
   -4.7911    5.5927   -2.0738 H   0  0  0  0  0  0  0  0  0  0  0  0
   -3.6684    4.6851   -1.0072 H   0  0  0  0  0  0  0  0  0  0  0  0
   -5.2100    3.0296   -0.7165 H   0  0  0  0  0  0  0  0  0  0  0  0
   -6.6674    2.2152   -2.2717 H   0  0  0  0  0  0  0  0  0  0  0  0
   -6.8914    3.8525   -2.9730 H   0  0  0  0  0  0  0  0  0  0  0  0
   -5.3224    3.2062   -4.5570 H   0  0  0  0  0  0  0  0  0  0  0  0
   -4.6878    1.0108   -2.5486 H   0  0  0  0  0  0  0  0  0  0  0  0
   -4.7816    0.9297   -4.3545 H   0  0  0  0  0  0  0  0  0  0  0  0
   -0.8161   -0.0524   -0.6797 H   0  0  0  0  0  0  0  0  0  0  0  0
    0.5747   -1.5547    0.6363 H   0  0  0  0  0  0  0  0  0  0  0  0
    2.4499   -3.0046   -2.9659 H   0  0  0  0  0  0  0  0  0  0  0  0
    1.0387   -1.5042   -4.3031 H   0  0  0  0  0  0  0  0  0  0  0  0
    2.7048   -2.4127    1.5122 H   0  0  0  0  0  0  0  0  0  0  0  0
    1.4510   -3.7068    1.4099 H   0  0  0  0  0  0  0  0  0  0  0  0
    3.2017   -5.4097    0.9745 H   0  0  0  0  0  0  0  0  0  0  0  0
    4.9430   -3.8333   -0.0342 H   0  0  0  0  0  0  0  0  0  0  0  0
    5.5650   -5.0206    1.1464 H   0  0  0  0  0  0  0  0  0  0  0  0
    6.6023   -2.8408    1.5669 H   0  0  0  0  0  0  0  0  0  0  0  0
    5.0103   -2.0263    1.6750 H   0  0  0  0  0  0  0  0  0  0  0  0
    5.8946   -2.4420    3.9449 H   0  0  0  0  0  0  0  0  0  0  0  0
    6.1400   -4.1856    3.5819 H   0  0  0  0  0  0  0  0  0  0  0  0
    3.4430   -2.6771    3.7397 H   0  0  0  0  0  0  0  0  0  0  0  0
    4.0747   -3.8881    4.8998 H   0  0  0  0  0  0  0  0  0  0  0  0
    2.3874   -4.8925    3.3341 H   0  0  0  0  0  0  0  0  0  0  0  0
    3.9913   -5.6760    3.2234 H   0  0  0  0  0  0  0  0  0  0  0  0
  1  2  2  0
  2  3  1  0
  3  4  1  0
  4  5  1  0
  5  6  1  0
  6  7  1  0
  7  8  1  0
  8  9  1  0
  9 10  1  0
 10 11  1  0
  2 12  1  0
 12 13  2  0
 13 14  1  0
 14 15  2  0
 15 16  1  0
 16 17  2  0
 15 18  1  0
 18 19  1  0
 19 20  1  0
 20 21  1  0
 21 22  1  0
 22 23  1  0
 23 24  1  0
 24 25  1  0
 11  4  1  0
 10  6  1  0
 12 17  1  0
 25 20  1  0
  3 26  1  0
  4 27  1  0
  5 28  1  0
  5 29  1  0
  6 30  1  0
  7 31  1  0
  7 32  1  0
  8 33  1  0
  9 34  1  0
  9 35  1  0
 10 36  1  0
 11 37  1  0
 11 38  1  0
 13 39  1  0
 14 40  1  0
 16 41  1  0
 17 42  1  0
 19 43  1  0
 19 44  1  0
 20 45  1  0
 21 46  1  0
 21 47  1  0
 22 48  1  0
 22 49  1  0
 23 50  1  0
 23 51  1  0
 24 52  1  0
 24 53  1  0
 25 54  1  0
 25 55  1  0
M  END
$$$$
