
     RDKit          3D

 38 40  0  0  0  0  0  0  0  0999 V2000
   -4.1293    3.9720   -3.1263 N   0  0  0  0  0  0  0  0  0  0  0  0
   -3.2009    3.3796   -2.7710 C   0  0  0  0  0  0  0  0  0  0  0  0
   -2.0478    2.6435   -2.3297 C   0  0  0  0  0  0  0  0  0  0  0  0
   -2.1962    1.3907   -1.7294 C   0  0  0  0  0  0  0  0  0  0  0  0
   -1.0452    0.6977   -1.3159 C   0  0  0  0  0  0  0  0  0  0  0  0
    0.1720    1.2814   -1.5015 N   0  0  0  0  0  0  0  0  0  0  0  0
    0.2956    2.5016   -2.0835 C   0  0  0  0  0  0  0  0  0  0  0  0
   -0.8092    3.1734   -2.4953 N   0  0  0  0  0  0  0  0  0  0  0  0
   -1.1246   -0.6077   -0.6923 N   0  0  0  0  0  0  0  0  0  0  0  0
   -0.0066   -1.0740    0.1420 C   0  0  0  0  0  0  0  0  0  0  0  0
    1.0255   -1.8326   -0.7154 C   0  0  0  0  0  0  0  0  0  0  0  0
    2.4317   -2.0074   -0.0936 C   0  0  1  0  0  0  0  0  0  0  0  0
    3.1709   -0.7050    0.2138 C   0  0  0  0  0  0  0  0  0  0  0  0
    3.2061   -1.0833    1.6902 C   0  0  2  0  0  0  0  0  0  0  0  0
    4.4983   -1.2892    2.1440 F   0  0  0  0  0  0  0  0  0  0  0  0
    2.4900   -2.3945    1.3853 C   0  0  0  0  0  0  0  0  0  0  0  0
   -2.2974   -1.4826   -0.8657 C   0  0  0  0  0  0  0  0  0  0  0  0
   -2.5655   -1.7515   -2.3161 C   0  0  0  0  0  0  0  0  0  0  0  0
   -1.6855   -2.2494   -3.2677 C   0  0  0  0  0  0  0  0  0  0  0  0
   -2.2819   -2.4250   -4.5335 C   0  0  0  0  0  0  0  0  0  0  0  0
   -3.5981   -2.1022   -4.6279 N   0  0  0  0  0  0  0  0  0  0  0  0
   -4.0226   -1.5877   -3.1063 S   0  0  0  0  0  0  0  0  0  0  0  0
   -3.1864    0.9812   -1.5825 H   0  0  0  0  0  0  0  0  0  0  0  0
    1.2755    2.9379   -2.2197 H   0  0  0  0  0  0  0  0  0  0  0  0
    0.4508   -0.2095    0.6660 H   0  0  0  0  0  0  0  0  0  0  0  0
   -0.3924   -1.7441    0.9394 H   0  0  0  0  0  0  0  0  0  0  0  0
    1.1541   -1.3102   -1.6878 H   0  0  0  0  0  0  0  0  0  0  0  0
    0.6173   -2.8414   -0.9393 H   0  0  0  0  0  0  0  0  0  0  0  0
    3.0600   -2.6849   -0.7146 H   0  0  0  0  0  0  0  0  0  0  0  0
    2.5886    0.2204    0.0185 H   0  0  0  0  0  0  0  0  0  0  0  0
    4.1842   -0.6809   -0.2442 H   0  0  0  0  0  0  0  0  0  0  0  0
    2.6164   -0.3970    2.3362 H   0  0  0  0  0  0  0  0  0  0  0  0
    1.5113   -2.4728    1.8998 H   0  0  0  0  0  0  0  0  0  0  0  0
    3.1375   -3.2821    1.5586 H   0  0  0  0  0  0  0  0  0  0  0  0
   -2.1416   -2.4611   -0.3625 H   0  0  0  0  0  0  0  0  0  0  0  0
   -3.1853   -1.0131   -0.3926 H   0  0  0  0  0  0  0  0  0  0  0  0
   -0.6501   -2.4834   -3.0658 H   0  0  0  0  0  0  0  0  0  0  0  0
   -1.7300   -2.8010   -5.3842 H   0  0  0  0  0  0  0  0  0  0  0  0
  1  2  3  0
  2  3  1  0
  3  4  2  0
  4  5  1  0
  5  6  2  0
  6  7  1  0
  7  8  2  0
  5  9  1  0
  9 10  1  0
 10 11  1  0
 11 12  1  0
 12 13  1  0
 13 14  1  0
 14 15  1  0
 14 16  1  0
  9 17  1  0
 17 18  1  0
 18 19  2  0
 19 20  1  0
 20 21  2  0
 21 22  1  0
  3  8  1  0
 16 12  1  0
 22 18  1  0
  4 23  1  0
  7 24  1  0
 10 25  1  0
 10 26  1  0
 11 27  1  0
 11 28  1  0
 12 29  1  6
 13 30  1  0
 13 31  1  0
 14 32  1  1
 16 33  1  0
 16 34  1  0
 17 35  1  0
 17 36  1  0
 19 37  1  0
 20 38  1  0
M  END
$$$$
