
     RDKit          3D

 48 50  0  0  0  0  0  0  0  0999 V2000
    1.6489   -3.8510    0.8119 C   0  0  0  0  0  0  0  0  0  0  0  0
    2.2731   -2.6612    0.1462 C   0  0  0  0  0  0  0  0  0  0  0  0
    2.1023   -2.4469   -1.2306 C   0  0  0  0  0  0  0  0  0  0  0  0
    2.6324   -1.3050   -1.8360 C   0  0  0  0  0  0  0  0  0  0  0  0
    3.3288   -0.3626   -1.0707 C   0  0  0  0  0  0  0  0  0  0  0  0
    3.5116   -0.5763    0.3003 C   0  0  0  0  0  0  0  0  0  0  0  0
    2.9738   -1.7142    0.9097 C   0  0  0  0  0  0  0  0  0  0  0  0
    3.9825    1.1164   -1.8485 S   0  0  0  0  0  0  0  0  0  0  0  0
    2.5149    2.1543   -1.5102 C   0  0  0  0  0  0  0  0  0  0  0  0
    1.3169    1.6790   -2.2912 C   0  0  0  0  0  0  0  0  0  0  0  0
    1.3974    1.6789   -3.5502 O   0  0  0  0  0  0  0  0  0  0  0  0
    0.0762    1.2823   -1.6621 N   0  0  0  0  0  0  0  0  0  0  0  0
   -1.1649    1.4661   -2.4269 C   0  0  0  0  0  0  0  0  0  0  0  0
   -2.4044    1.1008   -1.6010 C   0  0  0  0  0  0  0  0  0  0  0  0
   -2.2602   -0.2725   -0.9007 C   0  0  0  0  0  0  0  0  0  0  0  0
   -0.9726   -0.2632   -0.0030 C   0  0  0  0  0  0  0  0  0  0  0  0
   -0.0001    0.9089   -0.2414 C   0  0  0  0  0  0  0  0  0  0  0  0
   -2.1918   -1.3836   -2.0076 C   0  0  0  0  0  0  0  0  0  0  0  0
   -2.5254   -2.7993   -1.5040 C   0  0  0  0  0  0  0  0  0  0  0  0
   -1.4455   -3.3516   -0.7971 O   0  0  0  0  0  0  0  0  0  0  0  0
   -3.7577   -2.7605   -0.6090 C   0  0  0  0  0  0  0  0  0  0  0  0
   -3.5731   -1.7018    0.4716 C   0  0  0  0  0  0  0  0  0  0  0  0
   -3.4329   -0.4128   -0.0986 O   0  0  0  0  0  0  0  0  0  0  0  0
    2.3013   -4.2236    1.6300 H   0  0  0  0  0  0  0  0  0  0  0  0
    1.4995   -4.6786    0.0862 H   0  0  0  0  0  0  0  0  0  0  0  0
    0.6649   -3.5611    1.2363 H   0  0  0  0  0  0  0  0  0  0  0  0
    1.5575   -3.1600   -1.8353 H   0  0  0  0  0  0  0  0  0  0  0  0
    2.4900   -1.1474   -2.8975 H   0  0  0  0  0  0  0  0  0  0  0  0
    4.0485    0.1492    0.8978 H   0  0  0  0  0  0  0  0  0  0  0  0
    3.0994   -1.8548    1.9762 H   0  0  0  0  0  0  0  0  0  0  0  0
    2.7516    3.1868   -1.8416 H   0  0  0  0  0  0  0  0  0  0  0  0
    2.3319    2.2162   -0.4203 H   0  0  0  0  0  0  0  0  0  0  0  0
   -1.1329    0.8399   -3.3443 H   0  0  0  0  0  0  0  0  0  0  0  0
   -1.2493    2.5280   -2.7453 H   0  0  0  0  0  0  0  0  0  0  0  0
   -3.3003    1.1102   -2.2602 H   0  0  0  0  0  0  0  0  0  0  0  0
   -2.5681    1.8900   -0.8334 H   0  0  0  0  0  0  0  0  0  0  0  0
   -1.2582   -0.2171    1.0699 H   0  0  0  0  0  0  0  0  0  0  0  0
   -0.4051   -1.2072   -0.1285 H   0  0  0  0  0  0  0  0  0  0  0  0
    0.9861    0.5957    0.1491 H   0  0  0  0  0  0  0  0  0  0  0  0
   -0.3301    1.7945    0.3439 H   0  0  0  0  0  0  0  0  0  0  0  0
   -2.9254   -1.1472   -2.8105 H   0  0  0  0  0  0  0  0  0  0  0  0
   -1.1876   -1.3955   -2.4855 H   0  0  0  0  0  0  0  0  0  0  0  0
   -2.7615   -3.4476   -2.3809 H   0  0  0  0  0  0  0  0  0  0  0  0
   -0.7938   -3.6698   -1.4742 H   0  0  0  0  0  0  0  0  0  0  0  0
   -4.6563   -2.5145   -1.2166 H   0  0  0  0  0  0  0  0  0  0  0  0
   -3.9169   -3.7555   -0.1394 H   0  0  0  0  0  0  0  0  0  0  0  0
   -2.7201   -1.9602    1.1353 H   0  0  0  0  0  0  0  0  0  0  0  0
   -4.4801   -1.6979    1.1119 H   0  0  0  0  0  0  0  0  0  0  0  0
  1  2  1  0
  2  3  2  0
  3  4  1  0
  4  5  2  0
  5  6  1  0
  6  7  2  0
  5  8  1  0
  8  9  1  0
  9 10  1  0
 10 11  2  0
 10 12  1  0
 12 13  1  0
 13 14  1  0
 14 15  1  0
 15 16  1  0
 16 17  1  0
 15 18  1  0
 18 19  1  0
 19 20  1  0
 19 21  1  0
 21 22  1  0
 22 23  1  0
  2  7  1  0
 17 12  1  0
 23 15  1  0
  1 24  1  0
  1 25  1  0
  1 26  1  0
  3 27  1  0
  4 28  1  0
  6 29  1  0
  7 30  1  0
  9 31  1  0
  9 32  1  0
 13 33  1  0
 13 34  1  0
 14 35  1  0
 14 36  1  0
 16 37  1  0
 16 38  1  0
 17 39  1  0
 17 40  1  0
 18 41  1  0
 18 42  1  0
 19 43  1  0
 20 44  1  0
 21 45  1  0
 21 46  1  0
 22 47  1  0
 22 48  1  0
M  END
$$$$
