
     RDKit          3D

 43 46  0  0  0  0  0  0  0  0999 V2000
   -1.8609    0.3298    5.5895 C   0  0  0  0  0  0  0  0  0  0  0  0
   -1.4288    0.1332    4.2110 N   0  0  0  0  0  0  0  0  0  0  0  0
   -2.0051   -0.8301    3.2934 C   0  0  0  0  0  0  0  0  0  0  0  0
   -1.2886   -0.6005    1.9509 C   0  0  0  0  0  0  0  0  0  0  0  0
   -0.0025    0.2269    2.2559 C   0  0  0  0  0  0  0  0  0  0  0  0
    1.2673   -0.6787    2.2816 C   0  0  0  0  0  0  0  0  0  0  0  0
    2.0331   -0.6854    0.9448 C   0  0  0  0  0  0  0  0  0  0  0  0
    1.1304   -0.3984   -0.1759 N   0  0  0  0  0  0  0  0  0  0  0  0
    0.3969    0.8783   -0.1753 C   0  0  0  0  0  0  0  0  0  0  0  0
    0.1752    1.3976    1.2584 C   0  0  0  0  0  0  0  0  0  0  0  0
    0.7864   -1.4391   -1.1119 C   0  0  0  0  0  0  0  0  0  0  0  0
    0.7771   -2.6404   -0.7291 O   0  0  0  0  0  0  0  0  0  0  0  0
    0.4366   -1.1334   -2.5150 C   0  0  0  0  0  0  0  0  0  0  0  0
    0.8325   -0.0145   -3.2428 C   0  0  0  0  0  0  0  0  0  0  0  0
    0.3131   -0.1528   -4.5270 C   0  0  0  0  0  0  0  0  0  0  0  0
   -0.3689   -1.3517   -4.5255 C   0  0  0  0  0  0  0  0  0  0  0  0
   -1.0692   -1.9653   -5.5583 C   0  0  0  0  0  0  0  0  0  0  0  0
   -1.6758   -3.1986   -5.2806 C   0  0  0  0  0  0  0  0  0  0  0  0
   -1.5582   -3.7610   -3.9959 C   0  0  0  0  0  0  0  0  0  0  0  0
   -0.8546   -3.1031   -3.0313 N   0  0  0  0  0  0  0  0  0  0  0  0
   -0.2850   -1.9336   -3.3210 N   0  0  0  0  0  0  0  0  0  0  0  0
   -0.2902    0.7344    3.6279 C   0  0  0  0  0  0  0  0  0  0  0  0
    0.4189    1.5843    4.2321 O   0  0  0  0  0  0  0  0  0  0  0  0
   -2.1497    1.3908    5.7410 H   0  0  0  0  0  0  0  0  0  0  0  0
   -2.7349   -0.3168    5.8166 H   0  0  0  0  0  0  0  0  0  0  0  0
   -1.0328    0.0709    6.2821 H   0  0  0  0  0  0  0  0  0  0  0  0
   -3.1001   -0.6664    3.1960 H   0  0  0  0  0  0  0  0  0  0  0  0
   -1.8071   -1.8591    3.6641 H   0  0  0  0  0  0  0  0  0  0  0  0
   -1.9765   -0.0306    1.2878 H   0  0  0  0  0  0  0  0  0  0  0  0
   -1.0685   -1.5674    1.4480 H   0  0  0  0  0  0  0  0  0  0  0  0
    1.9757   -0.3312    3.0666 H   0  0  0  0  0  0  0  0  0  0  0  0
    0.9941   -1.7216    2.5557 H   0  0  0  0  0  0  0  0  0  0  0  0
    2.5561   -1.6571    0.8086 H   0  0  0  0  0  0  0  0  0  0  0  0
    2.8195    0.1005    0.9715 H   0  0  0  0  0  0  0  0  0  0  0  0
   -0.5966    0.7438   -0.6571 H   0  0  0  0  0  0  0  0  0  0  0  0
    0.9627    1.6361   -0.7562 H   0  0  0  0  0  0  0  0  0  0  0  0
    1.0579    2.0042    1.5606 H   0  0  0  0  0  0  0  0  0  0  0  0
   -0.7106    2.0707    1.2776 H   0  0  0  0  0  0  0  0  0  0  0  0
    1.4563    0.7984   -2.8987 H   0  0  0  0  0  0  0  0  0  0  0  0
    0.4332    0.5324   -5.3558 H   0  0  0  0  0  0  0  0  0  0  0  0
   -1.1453   -1.5109   -6.5379 H   0  0  0  0  0  0  0  0  0  0  0  0
   -2.2327   -3.7154   -6.0512 H   0  0  0  0  0  0  0  0  0  0  0  0
   -2.0237   -4.7113   -3.7717 H   0  0  0  0  0  0  0  0  0  0  0  0
  1  2  1  0
  2  3  1  0
  3  4  1  0
  4  5  1  0
  5  6  1  0
  6  7  1  0
  7  8  1  0
  8  9  1  0
  9 10  1  0
  8 11  1  0
 11 12  2  0
 11 13  1  0
 13 14  2  0
 14 15  1  0
 15 16  2  0
 16 17  1  0
 17 18  2  0
 18 19  1  0
 19 20  2  0
 20 21  1  0
  5 22  1  0
 22 23  2  0
 22  2  1  0
 10  5  1  0
 21 13  1  0
 21 16  1  0
  1 24  1  0
  1 25  1  0
  1 26  1  0
  3 27  1  0
  3 28  1  0
  4 29  1  0
  4 30  1  0
  6 31  1  0
  6 32  1  0
  7 33  1  0
  7 34  1  0
  9 35  1  0
  9 36  1  0
 10 37  1  0
 10 38  1  0
 14 39  1  0
 15 40  1  0
 17 41  1  0
 18 42  1  0
 19 43  1  0
M  END
$$$$
