
     RDKit          3D

 46 48  0  0  0  0  0  0  0  0999 V2000
   -1.7017   -0.9295   -1.3731 C   0  0  0  0  0  0  0  0  0  0  0  0
   -2.5201    0.2753   -0.8658 C   0  0  0  0  0  0  0  0  0  0  0  0
   -2.9258    1.1463   -2.0697 C   0  0  0  0  0  0  0  0  0  0  0  0
   -3.7287   -0.2004   -0.2102 N   0  0  0  0  0  0  0  0  0  0  0  0
   -3.9480    0.5299    0.9770 C   0  0  0  0  0  0  0  0  0  0  0  0
   -4.9709    0.3734    1.6939 O   0  0  0  0  0  0  0  0  0  0  0  0
   -2.8871    1.5187    1.2565 C   0  0  0  0  0  0  0  0  0  0  0  0
   -1.7966    1.1617    0.2182 C   0  0  0  0  0  0  0  0  0  0  0  0
   -0.6281    0.4695    0.9026 C   0  0  0  0  0  0  0  0  0  0  0  0
   -0.8661   -0.4715    1.7096 O   0  0  0  0  0  0  0  0  0  0  0  0
    0.7419    0.8427    0.6294 N   0  0  0  0  0  0  0  0  0  0  0  0
    1.1334    1.7079   -0.4745 C   0  0  0  0  0  0  0  0  0  0  0  0
    2.6449    1.5890   -0.5807 C   0  0  0  0  0  0  0  0  0  0  0  0
    3.1119    1.0688    0.7734 C   0  0  0  0  0  0  0  0  0  0  0  0
    1.8938    0.3551    1.3988 C   0  0  0  0  0  0  0  0  0  0  0  0
    1.7327    0.7946    2.8744 C   0  0  0  0  0  0  0  0  0  0  0  0
    2.0471   -1.1663    1.2360 C   0  0  0  0  0  0  0  0  0  0  0  0
    2.5828   -1.9752    2.2635 C   0  0  0  0  0  0  0  0  0  0  0  0
    2.7485   -3.3509    2.0767 C   0  0  0  0  0  0  0  0  0  0  0  0
    2.4079   -3.9404    0.8593 C   0  0  0  0  0  0  0  0  0  0  0  0
    1.9136   -3.1534   -0.1803 C   0  0  0  0  0  0  0  0  0  0  0  0
    1.7470   -1.7780   -0.0007 C   0  0  0  0  0  0  0  0  0  0  0  0
   -1.4827   -1.6414   -0.5502 H   0  0  0  0  0  0  0  0  0  0  0  0
   -2.2739   -1.4862   -2.1461 H   0  0  0  0  0  0  0  0  0  0  0  0
   -0.7486   -0.5881   -1.8267 H   0  0  0  0  0  0  0  0  0  0  0  0
   -3.5243    0.5551   -2.7958 H   0  0  0  0  0  0  0  0  0  0  0  0
   -3.5420    2.0092   -1.7363 H   0  0  0  0  0  0  0  0  0  0  0  0
   -2.0231    1.5360   -2.5879 H   0  0  0  0  0  0  0  0  0  0  0  0
   -4.4253   -0.8522   -0.6365 H   0  0  0  0  0  0  0  0  0  0  0  0
   -3.2847    2.5390    1.0664 H   0  0  0  0  0  0  0  0  0  0  0  0
   -2.5409    1.4483    2.3110 H   0  0  0  0  0  0  0  0  0  0  0  0
   -1.4384    2.1131   -0.2287 H   0  0  0  0  0  0  0  0  0  0  0  0
    0.6549    1.3810   -1.4224 H   0  0  0  0  0  0  0  0  0  0  0  0
    0.8479    2.7572   -0.2447 H   0  0  0  0  0  0  0  0  0  0  0  0
    2.9072    0.8515   -1.3709 H   0  0  0  0  0  0  0  0  0  0  0  0
    3.1129    2.5671   -0.8261 H   0  0  0  0  0  0  0  0  0  0  0  0
    3.9932    0.3991    0.6590 H   0  0  0  0  0  0  0  0  0  0  0  0
    3.4297    1.9419    1.3869 H   0  0  0  0  0  0  0  0  0  0  0  0
    0.9688    0.1800    3.3949 H   0  0  0  0  0  0  0  0  0  0  0  0
    1.4141    1.8583    2.9248 H   0  0  0  0  0  0  0  0  0  0  0  0
    2.6938    0.7071    3.4246 H   0  0  0  0  0  0  0  0  0  0  0  0
    2.8793   -1.5570    3.2142 H   0  0  0  0  0  0  0  0  0  0  0  0
    3.1489   -3.9601    2.8768 H   0  0  0  0  0  0  0  0  0  0  0  0
    2.5392   -5.0053    0.7174 H   0  0  0  0  0  0  0  0  0  0  0  0
    1.6664   -3.6078   -1.1311 H   0  0  0  0  0  0  0  0  0  0  0  0
    1.3875   -1.1926   -0.8348 H   0  0  0  0  0  0  0  0  0  0  0  0
  1  2  1  0
  2  3  1  0
  2  4  1  0
  4  5  1  0
  5  6  2  0
  5  7  1  0
  7  8  1  0
  8  9  1  0
  9 10  2  0
  9 11  1  0
 11 12  1  0
 12 13  1  0
 13 14  1  0
 14 15  1  0
 15 16  1  0
 15 17  1  0
 17 18  2  0
 18 19  1  0
 19 20  2  0
 20 21  1  0
 21 22  2  0
  8  2  1  0
 15 11  1  0
 17 22  1  0
  1 23  1  0
  1 24  1  0
  1 25  1  0
  3 26  1  0
  3 27  1  0
  3 28  1  0
  4 29  1  0
  7 30  1  0
  7 31  1  0
  8 32  1  0
 12 33  1  0
 12 34  1  0
 13 35  1  0
 13 36  1  0
 14 37  1  0
 14 38  1  0
 16 39  1  0
 16 40  1  0
 16 41  1  0
 18 42  1  0
 19 43  1  0
 20 44  1  0
 21 45  1  0
 22 46  1  0
M  END
$$$$
