
     RDKit          3D

 43 46  0  0  0  0  0  0  0  0999 V2000
   -3.5436   -1.6364    3.1322 C   0  0  0  0  0  0  0  0  0  0  0  0
   -3.0152   -0.7292    2.1164 N   0  0  0  0  0  0  0  0  0  0  0  0
   -3.3879   -0.6284    0.8155 C   0  0  0  0  0  0  0  0  0  0  0  0
   -4.3286   -1.2965    0.3069 O   0  0  0  0  0  0  0  0  0  0  0  0
   -2.6394    0.2614    0.1177 N   0  0  0  0  0  0  0  0  0  0  0  0
   -2.7185    0.5746   -1.3077 C   0  0  0  0  0  0  0  0  0  0  0  0
   -1.7374    0.7073    1.0156 C   0  0  0  0  0  0  0  0  0  0  0  0
   -0.6929    1.6072    0.8264 C   0  0  0  0  0  0  0  0  0  0  0  0
    0.1467    1.8998    1.9237 C   0  0  0  0  0  0  0  0  0  0  0  0
   -0.1157    1.3003    3.1943 C   0  0  0  0  0  0  0  0  0  0  0  0
    0.9154    1.6995    4.7645 Br  0  0  0  0  0  0  0  0  0  0  0  0
   -1.1775    0.3859    3.3406 C   0  0  0  0  0  0  0  0  0  0  0  0
   -1.9660    0.1111    2.2249 C   0  0  0  0  0  0  0  0  0  0  0  0
    1.5003    3.0121    1.6639 S   0  0  0  0  0  0  0  0  0  0  0  0
    1.0631    4.4010    2.0380 O   0  0  0  0  0  0  0  0  0  0  0  0
    2.6986    2.6323    2.4888 O   0  0  0  0  0  0  0  0  0  0  0  0
    1.9639    2.9948   -0.0105 N   0  0  0  0  0  0  0  0  0  0  0  0
    2.2628    1.7901   -0.7379 C   0  0  0  0  0  0  0  0  0  0  0  0
    2.2882    1.8245   -2.1528 C   0  0  0  0  0  0  0  0  0  0  0  0
    2.5819    0.6670   -2.8932 C   0  0  0  0  0  0  0  0  0  0  0  0
    2.8405   -0.5160   -2.2024 C   0  0  0  0  0  0  0  0  0  0  0  0
    3.1991   -1.8521   -2.7551 C   0  0  0  0  0  0  0  0  0  0  0  0
    3.3633   -2.7303   -1.4870 C   0  0  0  0  0  0  0  0  0  0  0  0
    3.1012   -1.8506   -0.3505 N   0  0  0  0  0  0  0  0  0  0  0  0
    2.8058   -0.5600   -0.8390 C   0  0  0  0  0  0  0  0  0  0  0  0
    2.5283    0.5696   -0.0736 C   0  0  0  0  0  0  0  0  0  0  0  0
   -3.6531   -1.1014    4.0991 H   0  0  0  0  0  0  0  0  0  0  0  0
   -2.8494   -2.4936    3.2613 H   0  0  0  0  0  0  0  0  0  0  0  0
   -4.5407   -2.0197    2.8297 H   0  0  0  0  0  0  0  0  0  0  0  0
   -3.7232    0.3177   -1.7067 H   0  0  0  0  0  0  0  0  0  0  0  0
   -1.9479   -0.0046   -1.8606 H   0  0  0  0  0  0  0  0  0  0  0  0
   -2.5492    1.6604   -1.4684 H   0  0  0  0  0  0  0  0  0  0  0  0
   -0.5317    2.0620   -0.1416 H   0  0  0  0  0  0  0  0  0  0  0  0
   -1.3772   -0.0857    4.2946 H   0  0  0  0  0  0  0  0  0  0  0  0
    1.9149    3.9026   -0.5267 H   0  0  0  0  0  0  0  0  0  0  0  0
    2.0840    2.7487   -2.6781 H   0  0  0  0  0  0  0  0  0  0  0  0
    2.6092    0.6945   -3.9759 H   0  0  0  0  0  0  0  0  0  0  0  0
    4.1552   -1.7892   -3.3200 H   0  0  0  0  0  0  0  0  0  0  0  0
    2.3850   -2.2349   -3.4079 H   0  0  0  0  0  0  0  0  0  0  0  0
    4.3980   -3.1325   -1.4185 H   0  0  0  0  0  0  0  0  0  0  0  0
    2.6334   -3.5676   -1.4899 H   0  0  0  0  0  0  0  0  0  0  0  0
    3.1984   -2.1139    0.6556 H   0  0  0  0  0  0  0  0  0  0  0  0
    2.5287    0.4908    1.0043 H   0  0  0  0  0  0  0  0  0  0  0  0
  1  2  1  0
  2  3  1  0
  3  4  2  0
  3  5  1  0
  5  6  1  0
  5  7  1  0
  7  8  2  0
  8  9  1  0
  9 10  2  0
 10 11  1  0
 10 12  1  0
 12 13  2  0
  9 14  1  0
 14 15  2  0
 14 16  2  0
 14 17  1  0
 17 18  1  0
 18 19  2  0
 19 20  1  0
 20 21  2  0
 21 22  1  0
 22 23  1  0
 23 24  1  0
 24 25  1  0
 25 26  2  0
 13  2  1  0
  7 13  1  0
 18 26  1  0
 21 25  1  0
  1 27  1  0
  1 28  1  0
  1 29  1  0
  6 30  1  0
  6 31  1  0
  6 32  1  0
  8 33  1  0
 12 34  1  0
 17 35  1  0
 19 36  1  0
 20 37  1  0
 22 38  1  0
 22 39  1  0
 23 40  1  0
 23 41  1  0
 24 42  1  0
 26 43  1  0
M  END
$$$$
