
     RDKit          3D

 45 47  0  0  0  0  0  0  0  0999 V2000
   -6.0216    0.5694   -2.8612 C   0  0  0  0  0  0  0  0  0  0  0  0
   -4.5735    0.6180   -2.6114 N   0  0  0  0  0  0  0  0  0  0  0  0
   -3.8565   -0.4744   -3.2893 C   0  0  0  0  0  0  0  0  0  0  0  0
   -2.8892   -1.0975   -2.2856 C   0  0  0  0  0  0  0  0  0  0  0  0
   -2.8764   -0.1408   -1.0892 C   0  0  0  0  0  0  0  0  0  0  0  0
   -2.7070   -0.8990    0.2438 C   0  0  0  0  0  0  0  0  0  0  0  0
   -1.7836    0.9566   -1.2475 C   0  0  0  0  0  0  0  0  0  0  0  0
   -0.4290    0.3988   -1.2138 N   0  0  0  0  0  0  0  0  0  0  0  0
    0.3829    0.3823   -0.0310 C   0  0  0  0  0  0  0  0  0  0  0  0
   -0.0571    0.8711    1.0453 O   0  0  0  0  0  0  0  0  0  0  0  0
    1.6793   -0.2331   -0.0716 N   0  0  0  0  0  0  0  0  0  0  0  0
    2.6504   -0.1411    0.9850 C   0  0  0  0  0  0  0  0  0  0  0  0
    2.7967    1.0305    1.7479 C   0  0  0  0  0  0  0  0  0  0  0  0
    3.7644    1.1029    2.7544 C   0  0  0  0  0  0  0  0  0  0  0  0
    4.6113    0.0110    3.0069 C   0  0  0  0  0  0  0  0  0  0  0  0
    4.4795   -1.1502    2.2290 C   0  0  0  0  0  0  0  0  0  0  0  0
    3.5124   -1.2211    1.2222 C   0  0  0  0  0  0  0  0  0  0  0  0
    5.6351    0.0810    4.0693 C   0  0  0  0  0  0  0  0  0  0  0  0
    5.8278    1.1606    4.8583 N   0  0  0  0  0  0  0  0  0  0  0  0
    6.8397    0.7838    5.6623 C   0  0  0  0  0  0  0  0  0  0  0  0
    7.2220   -0.4968    5.3377 C   0  0  0  0  0  0  0  0  0  0  0  0
    6.4610   -0.9022    4.3527 O   0  0  0  0  0  0  0  0  0  0  0  0
   -4.2651    0.5008   -1.1814 C   0  0  0  0  0  0  0  0  0  0  0  0
   -6.5252    1.4025   -2.3254 H   0  0  0  0  0  0  0  0  0  0  0  0
   -6.2191    0.6965   -3.9470 H   0  0  0  0  0  0  0  0  0  0  0  0
   -6.4604   -0.3965   -2.5244 H   0  0  0  0  0  0  0  0  0  0  0  0
   -3.2858   -0.0474   -4.1416 H   0  0  0  0  0  0  0  0  0  0  0  0
   -4.5394   -1.2589   -3.6902 H   0  0  0  0  0  0  0  0  0  0  0  0
   -1.8860   -1.2517   -2.7354 H   0  0  0  0  0  0  0  0  0  0  0  0
   -3.2832   -2.0947   -1.9858 H   0  0  0  0  0  0  0  0  0  0  0  0
   -2.7184   -0.1873    1.0967 H   0  0  0  0  0  0  0  0  0  0  0  0
   -1.7498   -1.4615    0.2551 H   0  0  0  0  0  0  0  0  0  0  0  0
   -3.5281   -1.6329    0.3931 H   0  0  0  0  0  0  0  0  0  0  0  0
   -1.9202    1.4869   -2.2156 H   0  0  0  0  0  0  0  0  0  0  0  0
   -1.8977    1.7262   -0.4528 H   0  0  0  0  0  0  0  0  0  0  0  0
   -0.0290    0.0110   -2.0973 H   0  0  0  0  0  0  0  0  0  0  0  0
    1.8909   -0.8610   -0.8799 H   0  0  0  0  0  0  0  0  0  0  0  0
    2.1834    1.8997    1.5515 H   0  0  0  0  0  0  0  0  0  0  0  0
    3.8549    2.0166    3.3285 H   0  0  0  0  0  0  0  0  0  0  0  0
    5.1251   -2.0032    2.3975 H   0  0  0  0  0  0  0  0  0  0  0  0
    3.4270   -2.1246    0.6314 H   0  0  0  0  0  0  0  0  0  0  0  0
    7.2704    1.4049    6.4361 H   0  0  0  0  0  0  0  0  0  0  0  0
    8.0067   -1.0797    5.8008 H   0  0  0  0  0  0  0  0  0  0  0  0
   -5.0171   -0.1419   -0.6651 H   0  0  0  0  0  0  0  0  0  0  0  0
   -4.2918    1.5044   -0.7034 H   0  0  0  0  0  0  0  0  0  0  0  0
  1  2  1  0
  2  3  1  0
  3  4  1  0
  4  5  1  0
  5  6  1  0
  5  7  1  0
  7  8  1  0
  8  9  1  0
  9 10  2  0
  9 11  1  0
 11 12  1  0
 12 13  2  0
 13 14  1  0
 14 15  2  0
 15 16  1  0
 16 17  2  0
 15 18  1  0
 18 19  2  0
 19 20  1  0
 20 21  2  0
 21 22  1  0
  5 23  1  0
 23  2  1  0
 12 17  1  0
 22 18  1  0
  1 24  1  0
  1 25  1  0
  1 26  1  0
  3 27  1  0
  3 28  1  0
  4 29  1  0
  4 30  1  0
  6 31  1  0
  6 32  1  0
  6 33  1  0
  7 34  1  0
  7 35  1  0
  8 36  1  0
 11 37  1  0
 13 38  1  0
 14 39  1  0
 16 40  1  0
 17 41  1  0
 20 42  1  0
 21 43  1  0
 23 44  1  0
 23 45  1  0
M  END
$$$$
