
     RDKit          3D

 47 49  0  0  0  0  0  0  0  0999 V2000
    0.2990    3.9791    6.4122 C   0  0  0  0  0  0  0  0  0  0  0  0
    0.2432    3.2477    5.1039 C   0  0  0  0  0  0  0  0  0  0  0  0
    1.2072    2.2765    4.7953 C   0  0  0  0  0  0  0  0  0  0  0  0
    1.1342    1.5676    3.5929 C   0  0  0  0  0  0  0  0  0  0  0  0
    0.0857    1.8067    2.6892 C   0  0  0  0  0  0  0  0  0  0  0  0
   -0.8839    2.7724    3.0054 C   0  0  0  0  0  0  0  0  0  0  0  0
   -0.8105    3.4812    4.2079 C   0  0  0  0  0  0  0  0  0  0  0  0
    0.0017    1.0334    1.3918 C   0  0  0  0  0  0  0  0  0  0  0  0
   -0.8649   -0.2598    1.4668 C   0  0  0  0  0  0  0  0  0  0  0  0
   -2.3363    0.0596    1.8121 C   0  0  0  0  0  0  0  0  0  0  0  0
   -0.3090   -1.2063    2.5566 C   0  0  0  0  0  0  0  0  0  0  0  0
   -0.8016   -0.9626    0.1672 N   0  0  0  0  0  0  0  0  0  0  0  0
   -1.2745   -0.4281   -1.0863 C   0  0  0  0  0  0  0  0  0  0  0  0
   -1.8416    0.6960   -1.1282 O   0  0  0  0  0  0  0  0  0  0  0  0
   -1.1131   -1.1786   -2.3458 C   0  0  0  0  0  0  0  0  0  0  0  0
   -0.4956   -2.4045   -2.5191 C   0  0  0  0  0  0  0  0  0  0  0  0
   -0.6198   -2.6388   -3.8730 C   0  0  0  0  0  0  0  0  0  0  0  0
   -1.2538   -1.6308   -4.4235 O   0  0  0  0  0  0  0  0  0  0  0  0
   -1.5658   -0.7329   -3.5352 N   0  0  0  0  0  0  0  0  0  0  0  0
   -0.1344   -3.8102   -4.6118 C   0  0  0  0  0  0  0  0  0  0  0  0
    0.5324   -4.9003   -4.0783 C   0  0  0  0  0  0  0  0  0  0  0  0
    0.7612   -5.7240   -5.1599 C   0  0  0  0  0  0  0  0  0  0  0  0
    0.2619   -5.1299   -6.2598 N   0  0  0  0  0  0  0  0  0  0  0  0
    0.2377   -5.6997   -7.5996 C   0  0  0  0  0  0  0  0  0  0  0  0
   -0.2963   -3.9739   -5.9391 N   0  0  0  0  0  0  0  0  0  0  0  0
   -0.2653    3.4078    7.1786 H   0  0  0  0  0  0  0  0  0  0  0  0
   -0.1464    4.9920    6.3142 H   0  0  0  0  0  0  0  0  0  0  0  0
    1.3505    4.0980    6.7501 H   0  0  0  0  0  0  0  0  0  0  0  0
    2.0157    2.0682    5.4852 H   0  0  0  0  0  0  0  0  0  0  0  0
    1.8910    0.8258    3.3698 H   0  0  0  0  0  0  0  0  0  0  0  0
   -1.6996    2.9738    2.3224 H   0  0  0  0  0  0  0  0  0  0  0  0
   -1.5747    4.2129    4.4393 H   0  0  0  0  0  0  0  0  0  0  0  0
    1.0286    0.7602    1.0620 H   0  0  0  0  0  0  0  0  0  0  0  0
   -0.3909    1.7141    0.6083 H   0  0  0  0  0  0  0  0  0  0  0  0
   -2.4355    0.3913    2.8677 H   0  0  0  0  0  0  0  0  0  0  0  0
   -2.9664   -0.8456    1.6773 H   0  0  0  0  0  0  0  0  0  0  0  0
   -2.7406    0.8675    1.1695 H   0  0  0  0  0  0  0  0  0  0  0  0
    0.7641   -1.4265    2.3694 H   0  0  0  0  0  0  0  0  0  0  0  0
   -0.4090   -0.7646    3.5706 H   0  0  0  0  0  0  0  0  0  0  0  0
   -0.8665   -2.1679    2.5530 H   0  0  0  0  0  0  0  0  0  0  0  0
   -0.3792   -1.9174    0.1499 H   0  0  0  0  0  0  0  0  0  0  0  0
   -0.0213   -3.0374   -1.7821 H   0  0  0  0  0  0  0  0  0  0  0  0
    0.8053   -5.0780   -3.0467 H   0  0  0  0  0  0  0  0  0  0  0  0
    1.2488   -6.6903   -5.1421 H   0  0  0  0  0  0  0  0  0  0  0  0
    1.1827   -6.2489   -7.7974 H   0  0  0  0  0  0  0  0  0  0  0  0
    0.1306   -4.8921   -8.3545 H   0  0  0  0  0  0  0  0  0  0  0  0
   -0.6194   -6.3991   -7.6901 H   0  0  0  0  0  0  0  0  0  0  0  0
  1  2  1  0
  2  3  2  0
  3  4  1  0
  4  5  2  0
  5  6  1  0
  6  7  2  0
  5  8  1  0
  8  9  1  0
  9 10  1  0
  9 11  1  0
  9 12  1  0
 12 13  1  0
 13 14  2  0
 13 15  1  0
 15 16  1  0
 16 17  2  0
 17 18  1  0
 18 19  1  0
 17 20  1  0
 20 21  1  0
 21 22  2  0
 22 23  1  0
 23 24  1  0
 23 25  1  0
  2  7  1  0
 15 19  2  0
 20 25  2  0
  1 26  1  0
  1 27  1  0
  1 28  1  0
  3 29  1  0
  4 30  1  0
  6 31  1  0
  7 32  1  0
  8 33  1  0
  8 34  1  0
 10 35  1  0
 10 36  1  0
 10 37  1  0
 11 38  1  0
 11 39  1  0
 11 40  1  0
 12 41  1  0
 16 42  1  0
 21 43  1  0
 22 44  1  0
 24 45  1  0
 24 46  1  0
 24 47  1  0
M  END
$$$$
