
     RDKit          3D

 50 53  0  0  0  0  0  0  0  0999 V2000
   -2.3008   -1.7883    1.3831 O   0  0  0  0  0  0  0  0  0  0  0  0
   -1.7951   -1.0423    0.5018 C   0  0  0  0  0  0  0  0  0  0  0  0
   -1.8778    0.3848    0.6329 N   0  0  0  0  0  0  0  0  0  0  0  0
   -2.2717    1.0536    1.8738 C   0  0  0  0  0  0  0  0  0  0  0  0
   -1.0506    1.7142    2.5462 C   0  0  0  0  0  0  0  0  0  0  0  0
   -1.5216    2.5819    3.6275 N   0  0  0  0  0  0  0  0  0  0  0  0
   -1.4354    1.8083    4.8716 C   0  0  0  0  0  0  0  0  0  0  0  0
   -0.6305    0.5385    4.6093 C   0  0  0  0  0  0  0  0  0  0  0  0
   -0.1079    0.6779    3.1852 C   0  0  0  0  0  0  0  0  0  0  0  0
    1.4262    0.9729    3.1161 C   0  0  0  0  0  0  0  0  0  0  0  0
    2.0059    1.9619    4.1257 C   0  0  0  0  0  0  0  0  0  0  0  0
    1.9548    2.3351    2.6579 C   0  0  0  0  0  0  0  0  0  0  0  0
   -1.1649   -1.6544   -0.6867 C   0  0  0  0  0  0  0  0  0  0  0  0
   -1.8193   -2.7155   -1.3292 C   0  0  0  0  0  0  0  0  0  0  0  0
   -1.2666   -3.3103   -2.4650 C   0  0  0  0  0  0  0  0  0  0  0  0
   -0.0400   -2.8631   -2.9863 C   0  0  0  0  0  0  0  0  0  0  0  0
    0.6294   -1.8174   -2.3233 C   0  0  0  0  0  0  0  0  0  0  0  0
    0.0807   -1.2162   -1.1838 C   0  0  0  0  0  0  0  0  0  0  0  0
    1.0322    0.0209   -0.3677 Cl  0  0  0  0  0  0  0  0  0  0  0  0
    0.5338   -3.4828   -4.1603 N   0  0  0  0  0  0  0  0  0  0  0  0
   -0.0119   -4.6704   -4.8156 C   0  0  0  0  0  0  0  0  0  0  0  0
    0.9482   -5.1048   -5.9453 C   0  0  0  0  0  0  0  0  0  0  0  0
    1.7284   -3.8925   -6.4633 C   0  0  0  0  0  0  0  0  0  0  0  0
    1.8096   -2.8001   -5.0864 S   0  0  0  0  0  0  0  0  0  0  0  0
    3.1264   -2.9102   -4.3701 O   0  0  0  0  0  0  0  0  0  0  0  0
    1.5104   -1.3818   -5.4852 O   0  0  0  0  0  0  0  0  0  0  0  0
   -1.6118    0.9840   -0.1800 H   0  0  0  0  0  0  0  0  0  0  0  0
   -2.7691    0.3468    2.5735 H   0  0  0  0  0  0  0  0  0  0  0  0
   -3.0170    1.8401    1.6224 H   0  0  0  0  0  0  0  0  0  0  0  0
   -0.5499    2.3119    1.7563 H   0  0  0  0  0  0  0  0  0  0  0  0
   -0.8692    3.3980    3.7009 H   0  0  0  0  0  0  0  0  0  0  0  0
   -0.9588    2.4112    5.6768 H   0  0  0  0  0  0  0  0  0  0  0  0
   -2.4622    1.5450    5.2062 H   0  0  0  0  0  0  0  0  0  0  0  0
    0.1770    0.4005    5.3610 H   0  0  0  0  0  0  0  0  0  0  0  0
   -1.3067   -0.3436    4.6738 H   0  0  0  0  0  0  0  0  0  0  0  0
   -0.2300   -0.3030    2.6773 H   0  0  0  0  0  0  0  0  0  0  0  0
    2.1040    0.1143    2.9185 H   0  0  0  0  0  0  0  0  0  0  0  0
    3.0290    1.7159    4.4854 H   0  0  0  0  0  0  0  0  0  0  0  0
    1.2982    2.5522    4.7415 H   0  0  0  0  0  0  0  0  0  0  0  0
    1.2755    3.1961    2.5040 H   0  0  0  0  0  0  0  0  0  0  0  0
    2.9577    2.3119    2.1807 H   0  0  0  0  0  0  0  0  0  0  0  0
   -2.7749   -3.0724   -0.9614 H   0  0  0  0  0  0  0  0  0  0  0  0
   -1.8130   -4.1153   -2.9381 H   0  0  0  0  0  0  0  0  0  0  0  0
    1.5912   -1.4724   -2.6733 H   0  0  0  0  0  0  0  0  0  0  0  0
   -0.1202   -5.4979   -4.0809 H   0  0  0  0  0  0  0  0  0  0  0  0
   -1.0068   -4.4260   -5.2474 H   0  0  0  0  0  0  0  0  0  0  0  0
    1.6714   -5.8441   -5.5349 H   0  0  0  0  0  0  0  0  0  0  0  0
    0.3864   -5.5906   -6.7717 H   0  0  0  0  0  0  0  0  0  0  0  0
    2.7451   -4.1782   -6.8089 H   0  0  0  0  0  0  0  0  0  0  0  0
    1.1674   -3.4045   -7.2893 H   0  0  0  0  0  0  0  0  0  0  0  0
  1  2  2  0
  2  3  1  0
  3  4  1  0
  4  5  1  0
  5  6  1  0
  6  7  1  0
  7  8  1  0
  8  9  1  0
  9 10  1  0
 10 11  1  0
 11 12  1  0
  2 13  1  0
 13 14  2  0
 14 15  1  0
 15 16  2  0
 16 17  1  0
 17 18  2  0
 18 19  1  0
 16 20  1  0
 20 21  1  0
 21 22  1  0
 22 23  1  0
 23 24  1  0
 24 25  2  0
 24 26  2  0
  9  5  1  0
 12 10  1  0
 13 18  1  0
 24 20  1  0
  3 27  1  0
  4 28  1  0
  4 29  1  0
  5 30  1  0
  6 31  1  0
  7 32  1  0
  7 33  1  0
  8 34  1  0
  8 35  1  0
  9 36  1  0
 10 37  1  0
 11 38  1  0
 11 39  1  0
 12 40  1  0
 12 41  1  0
 14 42  1  0
 15 43  1  0
 17 44  1  0
 21 45  1  0
 21 46  1  0
 22 47  1  0
 22 48  1  0
 23 49  1  0
 23 50  1  0
M  END
$$$$
