
     RDKit          3D

 42 43  0  0  0  0  0  0  0  0999 V2000
   -1.7133   -3.1330    3.6054 C   0  0  0  0  0  0  0  0  0  0  0  0
   -2.4555   -3.9355    2.5383 C   0  0  0  0  0  0  0  0  0  0  0  0
   -3.2083   -3.0346    1.5538 C   0  0  0  0  0  0  0  0  0  0  0  0
   -2.2734   -2.2481    0.7494 N   0  0  0  0  0  0  0  0  0  0  0  0
   -1.9815   -0.8688    1.0215 C   0  0  0  0  0  0  0  0  0  0  0  0
   -2.6281   -0.2460    1.9083 O   0  0  0  0  0  0  0  0  0  0  0  0
   -0.9090   -0.1513    0.2411 C   0  0  0  0  0  0  0  0  0  0  0  0
    0.1365    0.4608    1.1915 C   0  0  0  0  0  0  0  0  0  0  0  0
    1.2777    1.0955    0.3821 C   0  0  0  0  0  0  0  0  0  0  0  0
    0.7662    1.8363   -0.7838 N   0  0  0  0  0  0  0  0  0  0  0  0
   -0.6616    2.1728   -0.8521 C   0  0  0  0  0  0  0  0  0  0  0  0
   -1.5277    0.9099   -0.7077 C   0  0  0  0  0  0  0  0  0  0  0  0
    1.6135    2.0451   -1.9302 C   0  0  0  0  0  0  0  0  0  0  0  0
    1.1367    1.9014   -3.0892 O   0  0  0  0  0  0  0  0  0  0  0  0
    3.0399    2.4069   -1.7793 C   0  0  0  0  0  0  0  0  0  0  0  0
    3.9899    1.9317   -2.6997 C   0  0  0  0  0  0  0  0  0  0  0  0
    5.3375    2.2791   -2.5662 C   0  0  0  0  0  0  0  0  0  0  0  0
    5.7467    3.1117   -1.5217 C   0  0  0  0  0  0  0  0  0  0  0  0
    4.8069    3.6052   -0.6116 C   0  0  0  0  0  0  0  0  0  0  0  0
    5.3181    4.6667    0.6880 Cl  0  0  0  0  0  0  0  0  0  0  0  0
    3.4571    3.2593   -0.7425 C   0  0  0  0  0  0  0  0  0  0  0  0
   -2.4172   -2.4679    4.1495 H   0  0  0  0  0  0  0  0  0  0  0  0
   -0.9096   -2.5212    3.1442 H   0  0  0  0  0  0  0  0  0  0  0  0
   -1.2476   -3.8288    4.3345 H   0  0  0  0  0  0  0  0  0  0  0  0
   -3.1869   -4.6045    3.0409 H   0  0  0  0  0  0  0  0  0  0  0  0
   -1.7319   -4.5731    1.9853 H   0  0  0  0  0  0  0  0  0  0  0  0
   -3.8091   -3.6751    0.8732 H   0  0  0  0  0  0  0  0  0  0  0  0
   -3.9214   -2.3791    2.0991 H   0  0  0  0  0  0  0  0  0  0  0  0
   -1.7234   -2.7489    0.0155 H   0  0  0  0  0  0  0  0  0  0  0  0
   -0.3741   -0.8974   -0.3889 H   0  0  0  0  0  0  0  0  0  0  0  0
   -0.3387    1.2365    1.8323 H   0  0  0  0  0  0  0  0  0  0  0  0
    0.5550   -0.3253    1.8580 H   0  0  0  0  0  0  0  0  0  0  0  0
    1.8600    1.7721    1.0408 H   0  0  0  0  0  0  0  0  0  0  0  0
    1.9521    0.2819    0.0341 H   0  0  0  0  0  0  0  0  0  0  0  0
   -0.8992    2.8743   -0.0229 H   0  0  0  0  0  0  0  0  0  0  0  0
   -0.9131    2.6973   -1.7997 H   0  0  0  0  0  0  0  0  0  0  0  0
   -1.6671    0.4517   -1.7114 H   0  0  0  0  0  0  0  0  0  0  0  0
   -2.5343    1.2264   -0.3549 H   0  0  0  0  0  0  0  0  0  0  0  0
    3.6910    1.2820   -3.5132 H   0  0  0  0  0  0  0  0  0  0  0  0
    6.0652    1.9024   -3.2733 H   0  0  0  0  0  0  0  0  0  0  0  0
    6.7916    3.3775   -1.4245 H   0  0  0  0  0  0  0  0  0  0  0  0
    2.7351    3.6744   -0.0507 H   0  0  0  0  0  0  0  0  0  0  0  0
  1  2  1  0
  2  3  1  0
  3  4  1  0
  4  5  1  0
  5  6  2  0
  5  7  1  0
  7  8  1  0
  8  9  1  0
  9 10  1  0
 10 11  1  0
 11 12  1  0
 10 13  1  0
 13 14  2  0
 13 15  1  0
 15 16  2  0
 16 17  1  0
 17 18  2  0
 18 19  1  0
 19 20  1  0
 19 21  2  0
 12  7  1  0
 15 21  1  0
  1 22  1  0
  1 23  1  0
  1 24  1  0
  2 25  1  0
  2 26  1  0
  3 27  1  0
  3 28  1  0
  4 29  1  0
  7 30  1  0
  8 31  1  0
  8 32  1  0
  9 33  1  0
  9 34  1  0
 11 35  1  0
 11 36  1  0
 12 37  1  0
 12 38  1  0
 16 39  1  0
 17 40  1  0
 18 41  1  0
 21 42  1  0
M  END
$$$$
