
     RDKit          3D

 52 55  0  0  0  0  0  0  0  0999 V2000
   -2.0836    1.5190   -3.3688 C   0  0  0  0  0  0  0  0  0  0  0  0
   -1.6619    2.5210   -2.2757 C   0  0  0  0  0  0  0  0  0  0  0  0
   -2.9197    2.9019   -1.4356 C   0  0  0  0  0  0  0  0  0  0  0  0
   -2.6953    2.7303    0.0687 C   0  0  0  0  0  0  0  0  0  0  0  0
   -1.4056    3.4284    0.4872 C   0  0  0  0  0  0  0  0  0  0  0  0
   -0.2038    2.9783   -0.3693 C   0  0  0  0  0  0  0  0  0  0  0  0
   -0.5744    1.9834   -1.4071 N   0  0  0  0  0  0  0  0  0  0  0  0
    0.6444    1.5818   -2.1615 C   0  0  0  0  0  0  0  0  0  0  0  0
    0.7371    0.0505   -2.2835 C   0  0  0  0  0  0  0  0  0  0  0  0
    0.8107   -0.6684   -0.9167 C   0  0  0  0  0  0  0  0  0  0  0  0
    2.1273   -0.3398   -0.1565 C   0  0  0  0  0  0  0  0  0  0  0  0
    2.6197   -1.4973    0.7294 C   0  0  0  0  0  0  0  0  0  0  0  0
    1.4811   -2.2708    1.2400 N   0  0  0  0  0  0  0  0  0  0  0  0
    0.5729   -2.8938    0.2628 C   0  0  0  0  0  0  0  0  0  0  0  0
    0.6477   -2.1903   -1.1036 C   0  0  0  0  0  0  0  0  0  0  0  0
    1.1327   -2.1986    2.6382 C   0  0  0  0  0  0  0  0  0  0  0  0
    1.4479   -1.0830    3.3670 N   0  0  0  0  0  0  0  0  0  0  0  0
    1.1414   -0.9733    4.6978 C   0  0  0  0  0  0  0  0  0  0  0  0
    0.5088   -1.9926    5.3485 N   0  0  0  0  0  0  0  0  0  0  0  0
    0.1904   -3.0997    4.6384 C   0  0  0  0  0  0  0  0  0  0  0  0
   -0.3926   -4.2119    5.1055 N   0  0  0  0  0  0  0  0  0  0  0  0
   -0.4839   -5.0772    4.1025 N   0  0  0  0  0  0  0  0  0  0  0  0
    0.0468   -4.5067    2.9923 C   0  0  0  0  0  0  0  0  0  0  0  0
    0.4813   -3.2342    3.3179 C   0  0  0  0  0  0  0  0  0  0  0  0
   -2.9555    1.9172   -3.9334 H   0  0  0  0  0  0  0  0  0  0  0  0
   -2.3695    0.5463   -2.9122 H   0  0  0  0  0  0  0  0  0  0  0  0
   -1.2756    1.3576   -4.1123 H   0  0  0  0  0  0  0  0  0  0  0  0
   -1.2991    3.4414   -2.7897 H   0  0  0  0  0  0  0  0  0  0  0  0
   -3.1934    3.9651   -1.6446 H   0  0  0  0  0  0  0  0  0  0  0  0
   -3.8099    2.2859   -1.7089 H   0  0  0  0  0  0  0  0  0  0  0  0
   -2.6323    1.6452    0.3174 H   0  0  0  0  0  0  0  0  0  0  0  0
   -3.5513    3.1628    0.6284 H   0  0  0  0  0  0  0  0  0  0  0  0
   -1.5421    4.5310    0.3807 H   0  0  0  0  0  0  0  0  0  0  0  0
   -1.2096    3.2193    1.5662 H   0  0  0  0  0  0  0  0  0  0  0  0
    0.2634    3.8750   -0.8461 H   0  0  0  0  0  0  0  0  0  0  0  0
    0.5537    2.5322    0.3173 H   0  0  0  0  0  0  0  0  0  0  0  0
    1.5817    1.9351   -1.6740 H   0  0  0  0  0  0  0  0  0  0  0  0
    0.6718    2.0399   -3.1748 H   0  0  0  0  0  0  0  0  0  0  0  0
   -0.1419   -0.3240   -2.8461 H   0  0  0  0  0  0  0  0  0  0  0  0
    1.6339   -0.2082   -2.8883 H   0  0  0  0  0  0  0  0  0  0  0  0
   -0.0471   -0.3262   -0.2946 H   0  0  0  0  0  0  0  0  0  0  0  0
    1.9578    0.5514    0.4842 H   0  0  0  0  0  0  0  0  0  0  0  0
    2.9423   -0.0839   -0.8677 H   0  0  0  0  0  0  0  0  0  0  0  0
    3.2541   -1.1056    1.5538 H   0  0  0  0  0  0  0  0  0  0  0  0
    3.2642   -2.1728    0.1239 H   0  0  0  0  0  0  0  0  0  0  0  0
   -0.4765   -2.8244    0.6278 H   0  0  0  0  0  0  0  0  0  0  0  0
    0.8386   -3.9643    0.1331 H   0  0  0  0  0  0  0  0  0  0  0  0
    1.5102   -2.5898   -1.6827 H   0  0  0  0  0  0  0  0  0  0  0  0
   -0.2794   -2.4164   -1.6756 H   0  0  0  0  0  0  0  0  0  0  0  0
    1.4082   -0.0755    5.2364 H   0  0  0  0  0  0  0  0  0  0  0  0
   -0.7084   -4.3952    6.0823 H   0  0  0  0  0  0  0  0  0  0  0  0
    0.1197   -5.0047    2.0394 H   0  0  0  0  0  0  0  0  0  0  0  0
  1  2  1  0
  2  3  1  0
  3  4  1  0
  4  5  1  0
  5  6  1  0
  6  7  1  0
  7  8  1  0
  8  9  1  0
  9 10  1  0
 10 11  1  0
 11 12  1  0
 12 13  1  0
 13 14  1  0
 14 15  1  0
 13 16  1  0
 16 17  2  0
 17 18  1  0
 18 19  2  0
 19 20  1  0
 20 21  1  0
 21 22  1  0
 22 23  2  0
 23 24  1  0
  7  2  1  0
 15 10  1  0
 16 24  1  0
 24 20  2  0
  1 25  1  0
  1 26  1  0
  1 27  1  0
  2 28  1  0
  3 29  1  0
  3 30  1  0
  4 31  1  0
  4 32  1  0
  5 33  1  0
  5 34  1  0
  6 35  1  0
  6 36  1  0
  8 37  1  0
  8 38  1  0
  9 39  1  0
  9 40  1  0
 10 41  1  0
 11 42  1  0
 11 43  1  0
 12 44  1  0
 12 45  1  0
 14 46  1  0
 14 47  1  0
 15 48  1  0
 15 49  1  0
 18 50  1  0
 21 51  1  0
 23 52  1  0
M  END
$$$$
