
     RDKit          3D

 51 53  0  0  0  0  0  0  0  0999 V2000
   -1.9792   -1.4619    4.5762 C   0  0  0  0  0  0  0  0  0  0  0  0
   -1.5421   -0.3436    3.7368 N   0  0  0  0  0  0  0  0  0  0  0  0
   -2.4861    0.7246    3.3961 C   0  0  0  0  0  0  0  0  0  0  0  0
   -0.1427   -0.2471    3.3990 C   0  0  0  0  0  0  0  0  0  0  0  0
    0.7154   -0.5808    4.2612 O   0  0  0  0  0  0  0  0  0  0  0  0
    0.3508    0.1154    2.0132 C   0  0  0  0  0  0  0  0  0  0  0  0
   -0.3527    1.2702    1.4516 N   0  0  0  0  0  0  0  0  0  0  0  0
    0.0632    2.6192    1.7066 C   0  0  0  0  0  0  0  0  0  0  0  0
    0.8257    2.8796    2.6764 O   0  0  0  0  0  0  0  0  0  0  0  0
   -0.3616    3.7149    0.7778 C   0  0  0  0  0  0  0  0  0  0  0  0
    0.3128    3.5278   -0.5467 C   0  0  0  0  0  0  0  0  0  0  0  0
    1.3910    4.2994   -0.9743 C   0  0  0  0  0  0  0  0  0  0  0  0
    1.9337    3.6581   -2.4322 S   0  0  0  0  0  0  0  0  0  0  0  0
    0.7709    2.4376   -2.4621 C   0  0  0  0  0  0  0  0  0  0  0  0
   -0.0185    2.4948   -1.3681 N   0  0  0  0  0  0  0  0  0  0  0  0
    0.6948    1.3694   -3.4273 N   0  0  0  0  0  0  0  0  0  0  0  0
   -0.0255    0.1382   -3.0696 C   0  0  0  0  0  0  0  0  0  0  0  0
    0.5621   -1.0753   -3.7944 C   0  0  0  0  0  0  0  0  0  0  0  0
    0.5383   -0.8563   -5.3073 C   0  0  0  0  0  0  0  0  0  0  0  0
    1.2022    0.3951   -5.6598 N   0  0  0  0  0  0  0  0  0  0  0  0
    1.1879    1.5208   -4.7749 C   0  0  0  0  0  0  0  0  0  0  0  0
    1.6047    2.6351   -5.1905 O   0  0  0  0  0  0  0  0  0  0  0  0
    0.2632   -1.0687    1.0688 C   0  0  0  0  0  0  0  0  0  0  0  0
   -0.9719   -1.6824    0.7827 C   0  0  0  0  0  0  0  0  0  0  0  0
   -1.0426   -2.7446   -0.1235 C   0  0  0  0  0  0  0  0  0  0  0  0
    0.1137   -3.2035   -0.7573 C   0  0  0  0  0  0  0  0  0  0  0  0
    1.3432   -2.5986   -0.4893 C   0  0  0  0  0  0  0  0  0  0  0  0
    1.4200   -1.5361    0.4161 C   0  0  0  0  0  0  0  0  0  0  0  0
   -1.6763   -2.4211    4.1051 H   0  0  0  0  0  0  0  0  0  0  0  0
   -3.0831   -1.4753    4.6961 H   0  0  0  0  0  0  0  0  0  0  0  0
   -1.5134   -1.3845    5.5811 H   0  0  0  0  0  0  0  0  0  0  0  0
   -2.7804    0.6504    2.3305 H   0  0  0  0  0  0  0  0  0  0  0  0
   -3.4099    0.6569    4.0082 H   0  0  0  0  0  0  0  0  0  0  0  0
   -2.0279    1.7158    3.5974 H   0  0  0  0  0  0  0  0  0  0  0  0
    1.4250    0.3934    2.1128 H   0  0  0  0  0  0  0  0  0  0  0  0
   -1.1034    1.1158    0.7404 H   0  0  0  0  0  0  0  0  0  0  0  0
   -1.4629    3.6736    0.6398 H   0  0  0  0  0  0  0  0  0  0  0  0
   -0.1073    4.7081    1.2087 H   0  0  0  0  0  0  0  0  0  0  0  0
    1.8257    5.1386   -0.4475 H   0  0  0  0  0  0  0  0  0  0  0  0
    0.0444   -0.0491   -1.9755 H   0  0  0  0  0  0  0  0  0  0  0  0
   -1.0995    0.2519   -3.3329 H   0  0  0  0  0  0  0  0  0  0  0  0
   -0.0291   -1.9815   -3.5422 H   0  0  0  0  0  0  0  0  0  0  0  0
    1.6095   -1.2363   -3.4574 H   0  0  0  0  0  0  0  0  0  0  0  0
    1.0541   -1.7025   -5.8093 H   0  0  0  0  0  0  0  0  0  0  0  0
   -0.5130   -0.8251   -5.6665 H   0  0  0  0  0  0  0  0  0  0  0  0
    1.5537    0.5189   -6.6359 H   0  0  0  0  0  0  0  0  0  0  0  0
   -1.8827   -1.3355    1.2494 H   0  0  0  0  0  0  0  0  0  0  0  0
   -1.9964   -3.2085   -0.3384 H   0  0  0  0  0  0  0  0  0  0  0  0
    0.0560   -4.0227   -1.4622 H   0  0  0  0  0  0  0  0  0  0  0  0
    2.2373   -2.9489   -0.9885 H   0  0  0  0  0  0  0  0  0  0  0  0
    2.3823   -1.0752    0.6003 H   0  0  0  0  0  0  0  0  0  0  0  0
  1  2  1  0
  2  3  1  0
  2  4  1  0
  4  5  2  0
  4  6  1  0
  6  7  1  0
  7  8  1  0
  8  9  2  0
  8 10  1  0
 10 11  1  0
 11 12  2  0
 12 13  1  0
 13 14  1  0
 14 15  2  0
 14 16  1  0
 16 17  1  0
 17 18  1  0
 18 19  1  0
 19 20  1  0
 20 21  1  0
 21 22  2  0
  6 23  1  0
 23 24  2  0
 24 25  1  0
 25 26  2  0
 26 27  1  0
 27 28  2  0
 15 11  1  0
 21 16  1  0
 23 28  1  0
  1 29  1  0
  1 30  1  0
  1 31  1  0
  3 32  1  0
  3 33  1  0
  3 34  1  0
  6 35  1  0
  7 36  1  0
 10 37  1  0
 10 38  1  0
 12 39  1  0
 17 40  1  0
 17 41  1  0
 18 42  1  0
 18 43  1  0
 19 44  1  0
 19 45  1  0
 20 46  1  0
 24 47  1  0
 25 48  1  0
 26 49  1  0
 27 50  1  0
 28 51  1  0
M  END
$$$$
