
     RDKit          3D

 53 57  0  0  0  0  0  0  0  0999 V2000
   -2.1395   -3.2662   -1.2852 O   0  0  0  0  0  0  0  0  0  0  0  0
   -1.5784   -2.1633   -1.0473 C   0  0  0  0  0  0  0  0  0  0  0  0
   -2.3135   -1.1194   -0.3019 C   0  0  0  0  0  0  0  0  0  0  0  0
   -3.2639   -1.4980    0.6836 C   0  0  0  0  0  0  0  0  0  0  0  0
   -3.9779   -0.5263    1.4072 C   0  0  0  0  0  0  0  0  0  0  0  0
   -3.7292    0.8116    1.1187 C   0  0  0  0  0  0  0  0  0  0  0  0
   -4.2734    1.9585    1.6518 C   0  0  0  0  0  0  0  0  0  0  0  0
   -3.6585    3.0086    0.9643 C   0  0  0  0  0  0  0  0  0  0  0  0
   -2.7769    2.5259    0.0519 N   0  0  0  0  0  0  0  0  0  0  0  0
   -2.8298    1.1883    0.1605 C   0  0  0  0  0  0  0  0  0  0  0  0
   -2.1045    0.2521   -0.5742 C   0  0  0  0  0  0  0  0  0  0  0  0
   -3.9202    4.4530    1.1854 C   0  0  0  0  0  0  0  0  0  0  0  0
   -3.6180    5.3971    0.1855 C   0  0  0  0  0  0  0  0  0  0  0  0
   -3.8657    6.7572    0.3962 C   0  0  0  0  0  0  0  0  0  0  0  0
   -4.4161    7.1911    1.6036 C   0  0  0  0  0  0  0  0  0  0  0  0
   -4.7217    6.2655    2.6030 C   0  0  0  0  0  0  0  0  0  0  0  0
   -4.4773    4.9042    2.3978 C   0  0  0  0  0  0  0  0  0  0  0  0
   -0.2236   -1.9737   -1.4654 N   0  0  0  0  0  0  0  0  0  0  0  0
    0.8806   -1.0127   -1.2732 C   0  0  0  0  0  0  0  0  0  0  0  0
    1.9302   -1.8351   -1.9548 C   0  0  0  0  0  0  0  0  0  0  0  0
    0.7961   -2.7943   -2.1440 C   0  0  0  0  0  0  0  0  0  0  0  0
    2.9458   -2.3443   -1.0228 N   0  0  0  0  0  0  0  0  0  0  0  0
    4.0006   -1.3417   -0.7658 C   0  0  0  0  0  0  0  0  0  0  0  0
    4.6034   -1.5723    0.6280 C   0  0  0  0  0  0  0  0  0  0  0  0
    5.5724   -2.7604    0.6167 C   0  0  0  0  0  0  0  0  0  0  0  0
    6.6103   -2.5489   -0.3207 O   0  0  0  0  0  0  0  0  0  0  0  0
    6.0800   -2.5438   -1.6323 C   0  0  0  0  0  0  0  0  0  0  0  0
    5.1149   -1.3647   -1.8381 C   0  0  0  0  0  0  0  0  0  0  0  0
   -3.4416   -2.5443    0.8994 H   0  0  0  0  0  0  0  0  0  0  0  0
   -4.6976   -0.8118    2.1637 H   0  0  0  0  0  0  0  0  0  0  0  0
   -5.0300    2.0181    2.4228 H   0  0  0  0  0  0  0  0  0  0  0  0
   -2.1595    3.0683   -0.5918 H   0  0  0  0  0  0  0  0  0  0  0  0
   -1.4329    0.5831   -1.3519 H   0  0  0  0  0  0  0  0  0  0  0  0
   -3.2087    5.0892   -0.7670 H   0  0  0  0  0  0  0  0  0  0  0  0
   -3.6338    7.4751   -0.3799 H   0  0  0  0  0  0  0  0  0  0  0  0
   -4.6066    8.2443    1.7645 H   0  0  0  0  0  0  0  0  0  0  0  0
   -5.1459    6.6031    3.5398 H   0  0  0  0  0  0  0  0  0  0  0  0
   -4.7102    4.2113    3.1955 H   0  0  0  0  0  0  0  0  0  0  0  0
    0.6935   -0.0639   -1.8203 H   0  0  0  0  0  0  0  0  0  0  0  0
    1.0735   -0.8454   -0.1895 H   0  0  0  0  0  0  0  0  0  0  0  0
    2.3235   -1.4085   -2.9042 H   0  0  0  0  0  0  0  0  0  0  0  0
    0.9360   -3.7644   -1.6158 H   0  0  0  0  0  0  0  0  0  0  0  0
    0.5362   -2.9373   -3.2164 H   0  0  0  0  0  0  0  0  0  0  0  0
    3.3616   -3.2117   -1.4328 H   0  0  0  0  0  0  0  0  0  0  0  0
    3.5541   -0.3204   -0.7552 H   0  0  0  0  0  0  0  0  0  0  0  0
    5.1585   -0.6613    0.9430 H   0  0  0  0  0  0  0  0  0  0  0  0
    3.7948   -1.7519    1.3697 H   0  0  0  0  0  0  0  0  0  0  0  0
    6.0269   -2.8527    1.6255 H   0  0  0  0  0  0  0  0  0  0  0  0
    5.0328   -3.7144    0.4181 H   0  0  0  0  0  0  0  0  0  0  0  0
    6.9226   -2.4319   -2.3468 H   0  0  0  0  0  0  0  0  0  0  0  0
    5.5934   -3.5153   -1.8720 H   0  0  0  0  0  0  0  0  0  0  0  0
    4.6802   -1.4136   -2.8584 H   0  0  0  0  0  0  0  0  0  0  0  0
    5.6967   -0.4193   -1.7684 H   0  0  0  0  0  0  0  0  0  0  0  0
  1  2  2  0
  2  3  1  0
  3  4  2  0
  4  5  1  0
  5  6  2  0
  6  7  1  0
  7  8  2  0
  8  9  1  0
  9 10  1  0
 10 11  2  0
  8 12  1  0
 12 13  2  0
 13 14  1  0
 14 15  2  0
 15 16  1  0
 16 17  2  0
  2 18  1  0
 18 19  1  0
 19 20  1  0
 20 21  1  0
 20 22  1  0
 22 23  1  0
 23 24  1  0
 24 25  1  0
 25 26  1  0
 26 27  1  0
 27 28  1  0
  3 11  1  0
  6 10  1  0
 12 17  1  0
 21 18  1  0
 28 23  1  0
  4 29  1  0
  5 30  1  0
  7 31  1  0
  9 32  1  0
 11 33  1  0
 13 34  1  0
 14 35  1  0
 15 36  1  0
 16 37  1  0
 17 38  1  0
 19 39  1  0
 19 40  1  0
 20 41  1  0
 21 42  1  0
 21 43  1  0
 22 44  1  0
 23 45  1  0
 24 46  1  0
 24 47  1  0
 25 48  1  0
 25 49  1  0
 27 50  1  0
 27 51  1  0
 28 52  1  0
 28 53  1  0
M  END
$$$$
