
     RDKit          3D

 51 56  0  0  0  0  0  0  0  0999 V2000
   -5.3105   -1.9232    1.5337 O   0  0  0  0  0  0  0  0  0  0  0  0
   -4.0596   -1.9004    1.6814 C   0  0  0  0  0  0  0  0  0  0  0  0
   -3.4148   -0.7450    2.0301 N   0  0  0  0  0  0  0  0  0  0  0  0
   -2.0471   -0.7112    2.1943 C   0  0  0  0  0  0  0  0  0  0  0  0
   -1.3524    0.5716    2.5491 C   0  0  0  0  0  0  0  0  0  0  0  0
   -0.5515    1.0513    1.4058 N   0  0  0  0  0  0  0  0  0  0  0  0
   -1.4071    1.6817    0.3793 C   0  0  0  0  0  0  0  0  0  0  0  0
   -0.6037    1.9423   -0.9096 C   0  0  0  0  0  0  0  0  0  0  0  0
    0.9117    2.0523   -0.6414 C   0  0  0  0  0  0  0  0  0  0  0  0
    1.1734    2.7490    0.7027 C   0  0  0  0  0  0  0  0  0  0  0  0
    0.4888    1.9997    1.8689 C   0  0  0  0  0  0  0  0  0  0  0  0
    1.6020    2.7688   -1.7704 C   0  0  0  0  0  0  0  0  0  0  0  0
    1.4765    4.1059   -1.9930 N   0  0  0  0  0  0  0  0  0  0  0  0
    2.2141    4.2925   -3.1018 C   0  0  0  0  0  0  0  0  0  0  0  0
    2.4408    5.4854   -3.7845 C   0  0  0  0  0  0  0  0  0  0  0  0
    3.2492    5.4356   -4.9367 C   0  0  0  0  0  0  0  0  0  0  0  0
    3.8016    4.2083   -5.3716 C   0  0  0  0  0  0  0  0  0  0  0  0
    3.5502    3.0211   -4.6578 C   0  0  0  0  0  0  0  0  0  0  0  0
    2.7479    3.1113   -3.5227 C   0  0  0  0  0  0  0  0  0  0  0  0
    2.3672    2.1332   -2.6928 N   0  0  0  0  0  0  0  0  0  0  0  0
   -1.2998   -1.8417    2.0021 N   0  0  0  0  0  0  0  0  0  0  0  0
   -1.9432   -2.9805    1.6585 C   0  0  0  0  0  0  0  0  0  0  0  0
   -1.4617   -4.2363    1.4067 C   0  0  0  0  0  0  0  0  0  0  0  0
   -0.1787   -4.7747    1.4163 C   0  0  0  0  0  0  0  0  0  0  0  0
   -0.0472   -6.1394    1.0991 C   0  0  0  0  0  0  0  0  0  0  0  0
   -1.1859   -6.9178    0.7852 C   0  0  0  0  0  0  0  0  0  0  0  0
   -2.4711   -6.3414    0.7841 C   0  0  0  0  0  0  0  0  0  0  0  0
   -2.5791   -4.9893    1.1006 C   0  0  0  0  0  0  0  0  0  0  0  0
   -3.6804   -4.2594    1.1556 O   0  0  0  0  0  0  0  0  0  0  0  0
   -3.2974   -3.0427    1.4928 C   0  0  0  0  0  0  0  0  0  0  0  0
   -3.9761    0.1261    2.1684 H   0  0  0  0  0  0  0  0  0  0  0  0
   -2.0832    1.3451    2.8776 H   0  0  0  0  0  0  0  0  0  0  0  0
   -0.6939    0.3553    3.4202 H   0  0  0  0  0  0  0  0  0  0  0  0
   -1.8222    2.6427    0.7620 H   0  0  0  0  0  0  0  0  0  0  0  0
   -2.2676    1.0252    0.1242 H   0  0  0  0  0  0  0  0  0  0  0  0
   -0.9880    2.8753   -1.3788 H   0  0  0  0  0  0  0  0  0  0  0  0
   -0.7769    1.1121   -1.6294 H   0  0  0  0  0  0  0  0  0  0  0  0
    1.3311    1.0227   -0.5745 H   0  0  0  0  0  0  0  0  0  0  0  0
    2.2681    2.8107    0.8907 H   0  0  0  0  0  0  0  0  0  0  0  0
    0.7794    3.7891    0.6611 H   0  0  0  0  0  0  0  0  0  0  0  0
    0.0569    2.7484    2.5724 H   0  0  0  0  0  0  0  0  0  0  0  0
    1.2661    1.4283    2.4224 H   0  0  0  0  0  0  0  0  0  0  0  0
    2.0108    6.4179   -3.4427 H   0  0  0  0  0  0  0  0  0  0  0  0
    3.4479    6.3422   -5.4932 H   0  0  0  0  0  0  0  0  0  0  0  0
    4.4205    4.1811   -6.2589 H   0  0  0  0  0  0  0  0  0  0  0  0
    3.9649    2.0747   -4.9798 H   0  0  0  0  0  0  0  0  0  0  0  0
    2.6003    1.1166   -2.7485 H   0  0  0  0  0  0  0  0  0  0  0  0
    0.6849   -4.1687    1.6580 H   0  0  0  0  0  0  0  0  0  0  0  0
    0.9335   -6.5969    1.0955 H   0  0  0  0  0  0  0  0  0  0  0  0
   -1.0688   -7.9661    0.5434 H   0  0  0  0  0  0  0  0  0  0  0  0
   -3.3469   -6.9301    0.5446 H   0  0  0  0  0  0  0  0  0  0  0  0
  1  2  2  0
  2  3  1  0
  3  4  1  0
  4  5  1  0
  5  6  1  0
  6  7  1  0
  7  8  1  0
  8  9  1  0
  9 10  1  0
 10 11  1  0
  9 12  1  0
 12 13  2  0
 13 14  1  0
 14 15  2  0
 15 16  1  0
 16 17  2  0
 17 18  1  0
 18 19  2  0
 19 20  1  0
  4 21  2  0
 21 22  1  0
 22 23  1  0
 23 24  2  0
 24 25  1  0
 25 26  2  0
 26 27  1  0
 27 28  2  0
 28 29  1  0
 29 30  1  0
 30  2  1  0
 11  6  1  0
 20 12  1  0
 14 19  1  0
 22 30  2  0
 28 23  1  0
  3 31  1  0
  5 32  1  0
  5 33  1  0
  7 34  1  0
  7 35  1  0
  8 36  1  0
  8 37  1  0
  9 38  1  0
 10 39  1  0
 10 40  1  0
 11 41  1  0
 11 42  1  0
 15 43  1  0
 16 44  1  0
 17 45  1  0
 18 46  1  0
 20 47  1  0
 24 48  1  0
 25 49  1  0
 26 50  1  0
 27 51  1  0
M  END
$$$$
