
     RDKit          3D

 40 42  0  0  0  0  0  0  0  0999 V2000
    0.2454   -4.0045   -1.0923 O   0  0  0  0  0  0  0  0  0  0  0  0
    0.9350   -3.8858   -2.1396 C   0  0  0  0  0  0  0  0  0  0  0  0
    1.1615   -5.0049   -3.1007 C   0  0  0  0  0  0  0  0  0  0  0  0
    1.9393   -4.3500   -4.2581 C   0  0  0  0  0  0  0  0  0  0  0  0
    2.0964   -2.9302   -3.8272 C   0  0  0  0  0  0  0  0  0  0  0  0
    2.6977   -2.0597   -4.5112 O   0  0  0  0  0  0  0  0  0  0  0  0
    1.5185   -2.6604   -2.5597 N   0  0  0  0  0  0  0  0  0  0  0  0
    1.4336   -1.3743   -1.9194 C   0  0  0  0  0  0  0  0  0  0  0  0
    1.3466   -1.2613   -0.5224 C   0  0  0  0  0  0  0  0  0  0  0  0
    1.2719    0.0040    0.0622 C   0  0  0  0  0  0  0  0  0  0  0  0
    1.2862    1.1482   -0.7409 C   0  0  0  0  0  0  0  0  0  0  0  0
    1.3925    0.9997   -2.1279 C   0  0  0  0  0  0  0  0  0  0  0  0
    1.4641   -0.2420   -2.6766 N   0  0  0  0  0  0  0  0  0  0  0  0
    1.1912    2.7467   -0.0082 S   0  0  0  0  0  0  0  0  0  0  0  0
    2.5564    3.1406    0.4799 O   0  0  0  0  0  0  0  0  0  0  0  0
    0.7229    3.7534   -1.0229 O   0  0  0  0  0  0  0  0  0  0  0  0
    0.0868    2.7219    1.3340 N   0  0  0  0  0  0  0  0  0  0  0  0
   -1.2793    2.5036    0.8496 C   0  0  0  0  0  0  0  0  0  0  0  0
   -2.2308    2.2593    2.0333 C   0  0  0  0  0  0  0  0  0  0  0  0
   -2.4431    3.4695    2.8998 C   0  0  0  0  0  0  0  0  0  0  0  0
   -3.8524    3.2649    3.4229 C   0  0  0  0  0  0  0  0  0  0  0  0
   -4.5464    2.3711    2.5801 O   0  0  0  0  0  0  0  0  0  0  0  0
   -3.6461    1.9304    1.5902 C   0  0  0  0  0  0  0  0  0  0  0  0
    1.7625   -5.8060   -2.6197 H   0  0  0  0  0  0  0  0  0  0  0  0
    0.1894   -5.4102   -3.4550 H   0  0  0  0  0  0  0  0  0  0  0  0
    2.9355   -4.8248   -4.3868 H   0  0  0  0  0  0  0  0  0  0  0  0
    1.3608   -4.4006   -5.2053 H   0  0  0  0  0  0  0  0  0  0  0  0
    1.3636   -2.1348    0.1140 H   0  0  0  0  0  0  0  0  0  0  0  0
    1.2079    0.0918    1.1395 H   0  0  0  0  0  0  0  0  0  0  0  0
    1.4200    1.8667   -2.7743 H   0  0  0  0  0  0  0  0  0  0  0  0
    0.1309    3.6698    1.7741 H   0  0  0  0  0  0  0  0  0  0  0  0
   -1.6223    3.3773    0.2499 H   0  0  0  0  0  0  0  0  0  0  0  0
   -1.3084    1.6023    0.1985 H   0  0  0  0  0  0  0  0  0  0  0  0
   -1.8437    1.4213    2.6574 H   0  0  0  0  0  0  0  0  0  0  0  0
   -1.7008    3.5186    3.7263 H   0  0  0  0  0  0  0  0  0  0  0  0
   -2.4023    4.4073    2.3013 H   0  0  0  0  0  0  0  0  0  0  0  0
   -4.3946    4.2336    3.4684 H   0  0  0  0  0  0  0  0  0  0  0  0
   -3.8150    2.8335    4.4466 H   0  0  0  0  0  0  0  0  0  0  0  0
   -3.7593    0.8351    1.4430 H   0  0  0  0  0  0  0  0  0  0  0  0
   -3.8965    2.4416    0.6341 H   0  0  0  0  0  0  0  0  0  0  0  0
  1  2  2  0
  2  3  1  0
  3  4  1  0
  4  5  1  0
  5  6  2  0
  5  7  1  0
  7  8  1  0
  8  9  2  0
  9 10  1  0
 10 11  2  0
 11 12  1  0
 12 13  2  0
 11 14  1  0
 14 15  2  0
 14 16  2  0
 14 17  1  0
 17 18  1  0
 18 19  1  0
 19 20  1  0
 20 21  1  0
 21 22  1  0
 22 23  1  0
  7  2  1  0
  8 13  1  0
 23 19  1  0
  3 24  1  0
  3 25  1  0
  4 26  1  0
  4 27  1  0
  9 28  1  0
 10 29  1  0
 12 30  1  0
 17 31  1  0
 18 32  1  0
 18 33  1  0
 19 34  1  0
 20 35  1  0
 20 36  1  0
 21 37  1  0
 21 38  1  0
 23 39  1  0
 23 40  1  0
M  END
$$$$
