
     RDKit          3D

 49 52  0  0  0  0  0  0  0  0999 V2000
   -2.4237    1.9280   -3.8602 C   0  0  0  0  0  0  0  0  0  0  0  0
   -2.5440    1.8969   -2.4034 N   0  0  0  0  0  0  0  0  0  0  0  0
   -3.4597    0.9281   -1.8009 C   0  0  0  0  0  0  0  0  0  0  0  0
   -2.1081    3.0287   -1.6309 C   0  0  0  0  0  0  0  0  0  0  0  0
   -2.5539    4.3289   -1.9496 C   0  0  0  0  0  0  0  0  0  0  0  0
   -2.1389    5.4369   -1.1874 C   0  0  0  0  0  0  0  0  0  0  0  0
   -1.2704    5.2651   -0.1007 C   0  0  0  0  0  0  0  0  0  0  0  0
   -0.8341    3.9774    0.1965 C   0  0  0  0  0  0  0  0  0  0  0  0
    0.2213    3.4995    1.4100 S   0  0  0  0  0  0  0  0  0  0  0  0
    0.1832    1.8567    1.0051 C   0  0  0  0  0  0  0  0  0  0  0  0
   -0.6542    1.6736   -0.0984 C   0  0  0  0  0  0  0  0  0  0  0  0
   -1.2324    2.8716   -0.5424 C   0  0  0  0  0  0  0  0  0  0  0  0
    0.9517    0.8070    1.6956 C   0  0  0  0  0  0  0  0  0  0  0  0
    1.8051    1.1451    2.5595 O   0  0  0  0  0  0  0  0  0  0  0  0
    0.7107   -0.5846    1.4076 N   0  0  0  0  0  0  0  0  0  0  0  0
    1.6109   -1.7107    1.7488 C   0  0  0  0  0  0  0  0  0  0  0  0
    3.0698   -1.4276    1.3820 C   0  0  0  0  0  0  0  0  0  0  0  0
    3.8692   -2.1170    2.4737 C   0  0  0  0  0  0  0  0  0  0  0  0
    3.0341   -2.1904    3.6747 N   0  0  0  0  0  0  0  0  0  0  0  0
    1.6543   -1.8930    3.2796 C   0  0  0  0  0  0  0  0  0  0  0  0
    1.1699   -2.9825    0.9918 C   0  0  0  0  0  0  0  0  0  0  0  0
    1.3386   -4.2819    1.5263 C   0  0  0  0  0  0  0  0  0  0  0  0
    0.9866   -5.4131    0.7841 C   0  0  0  0  0  0  0  0  0  0  0  0
    0.4946   -5.2770   -0.5134 C   0  0  0  0  0  0  0  0  0  0  0  0
    0.3716   -4.0095   -1.0805 C   0  0  0  0  0  0  0  0  0  0  0  0
    0.7216   -2.8744   -0.3446 C   0  0  0  0  0  0  0  0  0  0  0  0
   -2.2925    0.8979   -4.2540 H   0  0  0  0  0  0  0  0  0  0  0  0
   -1.5395    2.5289   -4.1634 H   0  0  0  0  0  0  0  0  0  0  0  0
   -3.3388    2.3740   -4.3037 H   0  0  0  0  0  0  0  0  0  0  0  0
   -3.2118   -0.0957   -2.1521 H   0  0  0  0  0  0  0  0  0  0  0  0
   -3.3870    0.9440   -0.6926 H   0  0  0  0  0  0  0  0  0  0  0  0
   -4.5036    1.1719   -2.0904 H   0  0  0  0  0  0  0  0  0  0  0  0
   -3.2312    4.4827   -2.7797 H   0  0  0  0  0  0  0  0  0  0  0  0
   -2.4924    6.4277   -1.4415 H   0  0  0  0  0  0  0  0  0  0  0  0
   -0.9436    6.1133    0.4869 H   0  0  0  0  0  0  0  0  0  0  0  0
   -0.8212    0.7176   -0.5761 H   0  0  0  0  0  0  0  0  0  0  0  0
   -0.2473   -0.8196    1.0627 H   0  0  0  0  0  0  0  0  0  0  0  0
    3.3135   -0.3473    1.3915 H   0  0  0  0  0  0  0  0  0  0  0  0
    3.3508   -1.8154    0.3772 H   0  0  0  0  0  0  0  0  0  0  0  0
    4.1520   -3.1404    2.1360 H   0  0  0  0  0  0  0  0  0  0  0  0
    4.7979   -1.5498    2.6965 H   0  0  0  0  0  0  0  0  0  0  0  0
    3.0801   -3.1615    4.0635 H   0  0  0  0  0  0  0  0  0  0  0  0
    0.9446   -2.6700    3.6392 H   0  0  0  0  0  0  0  0  0  0  0  0
    1.3502   -0.9644    3.8039 H   0  0  0  0  0  0  0  0  0  0  0  0
    1.7559   -4.4409    2.5090 H   0  0  0  0  0  0  0  0  0  0  0  0
    1.1090   -6.3996    1.2127 H   0  0  0  0  0  0  0  0  0  0  0  0
    0.2274   -6.1554   -1.0866 H   0  0  0  0  0  0  0  0  0  0  0  0
    0.0163   -3.9056   -2.0976 H   0  0  0  0  0  0  0  0  0  0  0  0
    0.6529   -1.9087   -0.8291 H   0  0  0  0  0  0  0  0  0  0  0  0
  1  2  1  0
  2  3  1  0
  2  4  1  0
  4  5  2  0
  5  6  1  0
  6  7  2  0
  7  8  1  0
  8  9  1  0
  9 10  1  0
 10 11  2  0
 11 12  1  0
 10 13  1  0
 13 14  2  0
 13 15  1  0
 15 16  1  0
 16 17  1  0
 17 18  1  0
 18 19  1  0
 19 20  1  0
 16 21  1  0
 21 22  2  0
 22 23  1  0
 23 24  2  0
 24 25  1  0
 25 26  2  0
  4 12  1  0
 12  8  2  0
 20 16  1  0
 21 26  1  0
  1 27  1  0
  1 28  1  0
  1 29  1  0
  3 30  1  0
  3 31  1  0
  3 32  1  0
  5 33  1  0
  6 34  1  0
  7 35  1  0
 11 36  1  0
 15 37  1  0
 17 38  1  0
 17 39  1  0
 18 40  1  0
 18 41  1  0
 19 42  1  0
 20 43  1  0
 20 44  1  0
 22 45  1  0
 23 46  1  0
 24 47  1  0
 25 48  1  0
 26 49  1  0
M  END
$$$$
