
     RDKit          3D

 49 51  0  0  0  0  0  0  0  0999 V2000
    7.4148   -0.0370   -2.0645 C   0  0  0  0  0  0  0  0  0  0  0  0
    5.9331    0.0607   -1.8964 C   0  0  0  0  0  0  0  0  0  0  0  0
    5.3674   -0.6203   -0.9990 O   0  0  0  0  0  0  0  0  0  0  0  0
    5.1600    0.8563   -2.8090 N   0  0  0  0  0  0  0  0  0  0  0  0
    3.7751    1.1928   -2.6103 C   0  0  0  0  0  0  0  0  0  0  0  0
    3.2517    1.4164   -1.3230 C   0  0  0  0  0  0  0  0  0  0  0  0
    1.9071    1.7625   -1.1572 C   0  0  0  0  0  0  0  0  0  0  0  0
    1.0697    1.9110   -2.2743 C   0  0  0  0  0  0  0  0  0  0  0  0
    1.5924    1.6975   -3.5592 C   0  0  0  0  0  0  0  0  0  0  0  0
    2.9380    1.3526   -3.7253 C   0  0  0  0  0  0  0  0  0  0  0  0
   -0.3826    2.2526   -2.0823 C   0  0  0  0  0  0  0  0  0  0  0  0
   -1.1089    1.0800   -1.5989 N   0  0  0  0  0  0  0  0  0  0  0  0
   -1.4924    0.0009   -2.4680 C   0  0  0  0  0  0  0  0  0  0  0  0
   -1.3096    0.0953   -3.7140 O   0  0  0  0  0  0  0  0  0  0  0  0
   -2.1332   -1.2449   -1.9059 C   0  0  0  0  0  0  0  0  0  0  0  0
   -3.5324   -0.9173   -1.3542 C   0  0  0  0  0  0  0  0  0  0  0  0
   -4.1260   -2.1204   -0.6169 C   0  0  0  0  0  0  0  0  0  0  0  0
   -3.2119   -2.6329    0.4192 N   0  0  0  0  0  0  0  0  0  0  0  0
   -1.8518   -2.0760    0.5232 C   0  0  0  0  0  0  0  0  0  0  0  0
   -1.2110   -1.9389   -0.8647 C   0  0  0  0  0  0  0  0  0  0  0  0
   -3.6884   -3.5683    1.4152 C   0  0  0  0  0  0  0  0  0  0  0  0
   -4.8722   -4.3124    1.2275 C   0  0  0  0  0  0  0  0  0  0  0  0
   -5.2853   -5.1752    2.1901 N   0  0  0  0  0  0  0  0  0  0  0  0
   -4.5781   -5.3408    3.3380 C   0  0  0  0  0  0  0  0  0  0  0  0
   -3.4045   -4.6100    3.5352 C   0  0  0  0  0  0  0  0  0  0  0  0
   -2.9899   -3.7458    2.5737 N   0  0  0  0  0  0  0  0  0  0  0  0
    7.8936   -0.3681   -1.1107 H   0  0  0  0  0  0  0  0  0  0  0  0
    7.6482   -0.7719   -2.8682 H   0  0  0  0  0  0  0  0  0  0  0  0
    7.8269    0.9591   -2.3361 H   0  0  0  0  0  0  0  0  0  0  0  0
    5.6097    1.1382   -3.7087 H   0  0  0  0  0  0  0  0  0  0  0  0
    3.8831    1.3486   -0.4465 H   0  0  0  0  0  0  0  0  0  0  0  0
    1.5185    1.9200   -0.1586 H   0  0  0  0  0  0  0  0  0  0  0  0
    0.9615    1.8014   -4.4342 H   0  0  0  0  0  0  0  0  0  0  0  0
    3.3272    1.1972   -4.7238 H   0  0  0  0  0  0  0  0  0  0  0  0
   -0.4680    3.0721   -1.3334 H   0  0  0  0  0  0  0  0  0  0  0  0
   -0.8426    2.6270   -3.0251 H   0  0  0  0  0  0  0  0  0  0  0  0
   -1.3154    1.0125   -0.5773 H   0  0  0  0  0  0  0  0  0  0  0  0
   -2.2779   -1.9616   -2.7467 H   0  0  0  0  0  0  0  0  0  0  0  0
   -4.2072   -0.6325   -2.1888 H   0  0  0  0  0  0  0  0  0  0  0  0
   -3.4835   -0.0582   -0.6525 H   0  0  0  0  0  0  0  0  0  0  0  0
   -4.3397   -2.9279   -1.3503 H   0  0  0  0  0  0  0  0  0  0  0  0
   -5.0832   -1.8032   -0.1490 H   0  0  0  0  0  0  0  0  0  0  0  0
   -1.1976   -2.7327    1.1337 H   0  0  0  0  0  0  0  0  0  0  0  0
   -1.8963   -1.0824    1.0181 H   0  0  0  0  0  0  0  0  0  0  0  0
   -0.2379   -1.4032   -0.7539 H   0  0  0  0  0  0  0  0  0  0  0  0
   -0.9616   -2.9619   -1.2306 H   0  0  0  0  0  0  0  0  0  0  0  0
   -5.4621   -4.2210    0.3279 H   0  0  0  0  0  0  0  0  0  0  0  0
   -4.9255   -6.0324    4.0949 H   0  0  0  0  0  0  0  0  0  0  0  0
   -2.8288   -4.7248    4.4489 H   0  0  0  0  0  0  0  0  0  0  0  0
  1  2  1  0
  2  3  2  0
  2  4  1  0
  4  5  1  0
  5  6  2  0
  6  7  1  0
  7  8  2  0
  8  9  1  0
  9 10  2  0
  8 11  1  0
 11 12  1  0
 12 13  1  0
 13 14  2  0
 13 15  1  0
 15 16  1  0
 16 17  1  0
 17 18  1  0
 18 19  1  0
 19 20  1  0
 18 21  1  0
 21 22  2  0
 22 23  1  0
 23 24  2  0
 24 25  1  0
 25 26  2  0
  5 10  1  0
 20 15  1  0
 26 21  1  0
  1 27  1  0
  1 28  1  0
  1 29  1  0
  4 30  1  0
  6 31  1  0
  7 32  1  0
  9 33  1  0
 10 34  1  0
 11 35  1  0
 11 36  1  0
 12 37  1  0
 15 38  1  0
 16 39  1  0
 16 40  1  0
 17 41  1  0
 17 42  1  0
 19 43  1  0
 19 44  1  0
 20 45  1  0
 20 46  1  0
 22 47  1  0
 24 48  1  0
 25 49  1  0
M  END
$$$$
