
     RDKit          3D

 44 47  0  0  0  0  0  0  0  0999 V2000
   -2.7272    0.5790   -0.3165 O   0  0  0  0  0  0  0  0  0  0  0  0
   -2.1204   -0.3701   -0.8801 C   0  0  0  0  0  0  0  0  0  0  0  0
   -2.1608   -1.7629   -0.3930 C   0  0  0  0  0  0  0  0  0  0  0  0
   -1.5460   -2.5506   -1.5644 C   0  0  0  0  0  0  0  0  0  0  0  0
   -0.5858   -3.5651   -1.1080 N   0  0  0  0  0  0  0  0  0  0  0  0
    0.6443   -3.2929   -0.4164 C   0  0  0  0  0  0  0  0  0  0  0  0
    1.4774   -4.3221   -0.1058 N   0  0  0  0  0  0  0  0  0  0  0  0
    2.6649   -4.1011    0.5144 C   0  0  0  0  0  0  0  0  0  0  0  0
    3.0507   -2.8011    0.8351 C   0  0  0  0  0  0  0  0  0  0  0  0
    2.1862   -1.7522    0.5230 C   0  0  0  0  0  0  0  0  0  0  0  0
    1.0028   -2.0190   -0.0951 N   0  0  0  0  0  0  0  0  0  0  0  0
    2.5724   -0.4370    0.8057 O   0  0  0  0  0  0  0  0  0  0  0  0
    1.6904    0.6470    0.8997 C   0  0  0  0  0  0  0  0  0  0  0  0
    2.1165    1.9058    0.4580 C   0  0  0  0  0  0  0  0  0  0  0  0
    1.2668    3.0125    0.5528 C   0  0  0  0  0  0  0  0  0  0  0  0
   -0.0074    2.8707    1.1090 C   0  0  0  0  0  0  0  0  0  0  0  0
   -0.4309    1.6232    1.5749 C   0  0  0  0  0  0  0  0  0  0  0  0
    0.4112    0.5120    1.4682 C   0  0  0  0  0  0  0  0  0  0  0  0
   -0.9060   -1.5120   -2.5339 C   0  0  0  0  0  0  0  0  0  0  0  0
   -1.3043   -1.7394   -4.0116 C   0  0  0  0  0  0  0  0  0  0  0  0
   -2.6371   -1.0489   -4.3411 C   0  0  0  0  0  0  0  0  0  0  0  0
   -2.5812    0.4782   -4.1067 C   0  0  0  0  0  0  0  0  0  0  0  0
   -1.5822    0.8947   -3.0097 C   0  0  0  0  0  0  0  0  0  0  0  0
   -1.3711   -0.2075   -2.0727 N   0  0  0  0  0  0  0  0  0  0  0  0
   -1.5710   -1.8523    0.5424 H   0  0  0  0  0  0  0  0  0  0  0  0
   -3.2100   -2.0782   -0.2054 H   0  0  0  0  0  0  0  0  0  0  0  0
   -2.3838   -3.0722   -2.0809 H   0  0  0  0  0  0  0  0  0  0  0  0
   -0.8056   -4.5637   -1.3247 H   0  0  0  0  0  0  0  0  0  0  0  0
    3.3134   -4.9344    0.7496 H   0  0  0  0  0  0  0  0  0  0  0  0
    4.0012   -2.6120    1.3175 H   0  0  0  0  0  0  0  0  0  0  0  0
    3.1048    2.0239    0.0320 H   0  0  0  0  0  0  0  0  0  0  0  0
    1.5980    3.9806    0.2000 H   0  0  0  0  0  0  0  0  0  0  0  0
   -0.6626    3.7285    1.1873 H   0  0  0  0  0  0  0  0  0  0  0  0
   -1.4111    1.5174    2.0214 H   0  0  0  0  0  0  0  0  0  0  0  0
    0.0782   -0.4416    1.8554 H   0  0  0  0  0  0  0  0  0  0  0  0
    0.2017   -1.5366   -2.4686 H   0  0  0  0  0  0  0  0  0  0  0  0
   -1.3712   -2.8261   -4.2361 H   0  0  0  0  0  0  0  0  0  0  0  0
   -0.5152   -1.3166   -4.6718 H   0  0  0  0  0  0  0  0  0  0  0  0
   -3.4374   -1.4876   -3.7057 H   0  0  0  0  0  0  0  0  0  0  0  0
   -2.9065   -1.2506   -5.4002 H   0  0  0  0  0  0  0  0  0  0  0  0
   -3.5980    0.8322   -3.8299 H   0  0  0  0  0  0  0  0  0  0  0  0
   -2.3019    0.9867   -5.0552 H   0  0  0  0  0  0  0  0  0  0  0  0
   -1.9399    1.8040   -2.4802 H   0  0  0  0  0  0  0  0  0  0  0  0
   -0.6075    1.1461   -3.4816 H   0  0  0  0  0  0  0  0  0  0  0  0
  1  2  2  0
  2  3  1  0
  3  4  1  0
  4  5  1  0
  5  6  1  0
  6  7  2  0
  7  8  1  0
  8  9  2  0
  9 10  1  0
 10 11  2  0
 10 12  1  0
 12 13  1  0
 13 14  2  0
 14 15  1  0
 15 16  2  0
 16 17  1  0
 17 18  2  0
  4 19  1  0
 19 20  1  0
 20 21  1  0
 21 22  1  0
 22 23  1  0
 23 24  1  0
 24  2  1  0
  6 11  1  0
 13 18  1  0
 24 19  1  0
  3 25  1  0
  3 26  1  0
  4 27  1  0
  5 28  1  0
  8 29  1  0
  9 30  1  0
 14 31  1  0
 15 32  1  0
 16 33  1  0
 17 34  1  0
 18 35  1  0
 19 36  1  0
 20 37  1  0
 20 38  1  0
 21 39  1  0
 21 40  1  0
 22 41  1  0
 22 42  1  0
 23 43  1  0
 23 44  1  0
M  END
$$$$
