
     RDKit          3D

 43 46  0  0  0  0  0  0  0  0999 V2000
   -1.2470   -6.0405    0.5642 C   0  0  0  0  0  0  0  0  0  0  0  0
   -0.4241   -4.8431    1.0683 C   0  0  0  0  0  0  0  0  0  0  0  0
   -1.3170   -3.7258    1.6726 C   0  0  0  0  0  0  0  0  0  0  0  0
   -0.5738   -2.5402    2.1060 N   0  0  0  0  0  0  0  0  0  0  0  0
   -0.3954   -1.4033    1.4109 C   0  0  0  0  0  0  0  0  0  0  0  0
    0.3099   -0.5546    2.2395 C   0  0  0  0  0  0  0  0  0  0  0  0
    0.5235   -1.1894    3.4103 N   0  0  0  0  0  0  0  0  0  0  0  0
   -0.0286   -2.3893    3.3027 N   0  0  0  0  0  0  0  0  0  0  0  0
    0.7590    0.8178    1.9526 C   0  0  0  0  0  0  0  0  0  0  0  0
    1.3547    1.4672    2.8544 O   0  0  0  0  0  0  0  0  0  0  0  0
    0.5292    1.4207    0.6711 N   0  0  0  0  0  0  0  0  0  0  0  0
    0.9885    2.7744    0.3753 C   0  0  2  0  0  0  0  0  0  0  0  0
    0.1010    3.8507    0.9945 C   0  0  0  0  0  0  0  0  0  0  0  0
    0.0290    3.5689   -0.5033 C   0  0  1  0  0  0  0  0  0  0  0  0
    0.6342    4.6151   -1.4226 C   0  0  0  0  0  0  0  0  0  0  0  0
   -0.0255    4.8812   -2.6349 C   0  0  0  0  0  0  0  0  0  0  0  0
    0.4781    5.8315   -3.5277 C   0  0  0  0  0  0  0  0  0  0  0  0
    1.6476    6.5294   -3.2221 C   0  0  0  0  0  0  0  0  0  0  0  0
    2.3165    6.2782   -2.0225 C   0  0  0  0  0  0  0  0  0  0  0  0
    3.4515    6.9585   -1.7263 F   0  0  0  0  0  0  0  0  0  0  0  0
    1.8172    5.3284   -1.1252 C   0  0  0  0  0  0  0  0  0  0  0  0
    0.6419   -4.3912    0.0838 C   0  0  0  0  0  0  0  0  0  0  0  0
    1.6913   -4.7888    0.9365 O   0  0  0  0  0  0  0  0  0  0  0  0
    0.7770   -5.2535    1.9033 C   0  0  0  0  0  0  0  0  0  0  0  0
   -1.9493   -5.7086   -0.2296 H   0  0  0  0  0  0  0  0  0  0  0  0
   -0.5939   -6.8356    0.1430 H   0  0  0  0  0  0  0  0  0  0  0  0
   -1.8330   -6.4756    1.4015 H   0  0  0  0  0  0  0  0  0  0  0  0
   -2.0758   -3.4238    0.9177 H   0  0  0  0  0  0  0  0  0  0  0  0
   -1.8715   -4.1398    2.5425 H   0  0  0  0  0  0  0  0  0  0  0  0
   -0.7584   -1.2193    0.4084 H   0  0  0  0  0  0  0  0  0  0  0  0
    0.1219    0.8565   -0.1069 H   0  0  0  0  0  0  0  0  0  0  0  0
    2.0806    2.9695    0.3597 H   0  0  0  0  0  0  0  0  0  0  0  0
    0.6384    4.7709    1.3024 H   0  0  0  0  0  0  0  0  0  0  0  0
   -0.7705    3.4688    1.5686 H   0  0  0  0  0  0  0  0  0  0  0  0
   -0.8953    3.0375   -0.8201 H   0  0  0  0  0  0  0  0  0  0  0  0
   -0.9345    4.3510   -2.8919 H   0  0  0  0  0  0  0  0  0  0  0  0
   -0.0395    6.0265   -4.4581 H   0  0  0  0  0  0  0  0  0  0  0  0
    2.0345    7.2649   -3.9156 H   0  0  0  0  0  0  0  0  0  0  0  0
    2.3595    5.1635   -0.2050 H   0  0  0  0  0  0  0  0  0  0  0  0
    0.6784   -3.3002   -0.1084 H   0  0  0  0  0  0  0  0  0  0  0  0
    0.6639   -4.9765   -0.8625 H   0  0  0  0  0  0  0  0  0  0  0  0
    0.8957   -4.7065    2.8604 H   0  0  0  0  0  0  0  0  0  0  0  0
    0.8805   -6.3528    2.0426 H   0  0  0  0  0  0  0  0  0  0  0  0
  1  2  1  0
  2  3  1  0
  3  4  1  0
  4  5  1  0
  5  6  2  0
  6  7  1  0
  7  8  2  0
  6  9  1  0
  9 10  2  0
  9 11  1  0
 11 12  1  0
 12 13  1  0
 13 14  1  0
 14 15  1  0
 15 16  2  0
 16 17  1  0
 17 18  2  0
 18 19  1  0
 19 20  1  0
 19 21  2  0
  2 22  1  0
 22 23  1  0
 23 24  1  0
 24  2  1  0
  8  4  1  0
 14 12  1  0
 15 21  1  0
  1 25  1  0
  1 26  1  0
  1 27  1  0
  3 28  1  0
  3 29  1  0
  5 30  1  0
 11 31  1  0
 12 32  1  6
 13 33  1  0
 13 34  1  0
 14 35  1  6
 16 36  1  0
 17 37  1  0
 18 38  1  0
 21 39  1  0
 22 40  1  0
 22 41  1  0
 24 42  1  0
 24 43  1  0
M  END
$$$$
