
     RDKit          3D

 43 46  0  0  0  0  0  0  0  0999 V2000
    3.9780    3.1746   -1.1689 C   0  0  0  0  0  0  0  0  0  0  0  0
    2.7633    2.5403   -0.6635 N   0  0  0  0  0  0  0  0  0  0  0  0
    2.1613    2.7358    0.5364 C   0  0  0  0  0  0  0  0  0  0  0  0
    2.6289    3.4860    1.4356 O   0  0  0  0  0  0  0  0  0  0  0  0
    0.9944    2.0556    0.6606 N   0  0  0  0  0  0  0  0  0  0  0  0
    0.0521    2.0884    1.7762 C   0  0  0  0  0  0  0  0  0  0  0  0
    0.8441    1.4400   -0.5295 C   0  0  0  0  0  0  0  0  0  0  0  0
   -0.2139    0.6507   -0.9748 C   0  0  0  0  0  0  0  0  0  0  0  0
   -0.1505    0.1250   -2.2845 C   0  0  0  0  0  0  0  0  0  0  0  0
    0.9605    0.4447   -3.1208 C   0  0  0  0  0  0  0  0  0  0  0  0
    1.0911   -0.1753   -4.9313 Br  0  0  0  0  0  0  0  0  0  0  0  0
    2.0031    1.2594   -2.6373 C   0  0  0  0  0  0  0  0  0  0  0  0
    1.9139    1.7323   -1.3300 C   0  0  0  0  0  0  0  0  0  0  0  0
   -1.4677   -0.9043   -2.8627 S   0  0  0  0  0  0  0  0  0  0  0  0
   -0.9238   -2.1630   -3.4788 O   0  0  0  0  0  0  0  0  0  0  0  0
   -2.2507   -0.1496   -3.8996 O   0  0  0  0  0  0  0  0  0  0  0  0
   -2.5376   -1.3357   -1.5642 N   0  0  0  0  0  0  0  0  0  0  0  0
   -2.1662   -2.1713   -0.4524 C   0  0  0  0  0  0  0  0  0  0  0  0
   -0.8489   -2.6790   -0.3009 C   0  0  0  0  0  0  0  0  0  0  0  0
   -0.5134   -3.4759    0.8061 C   0  0  0  0  0  0  0  0  0  0  0  0
   -1.5002   -3.7566    1.7489 C   0  0  0  0  0  0  0  0  0  0  0  0
   -1.3870   -4.5651    2.9947 C   0  0  0  0  0  0  0  0  0  0  0  0
   -2.8130   -4.4913    3.5976 C   0  0  0  0  0  0  0  0  0  0  0  0
   -3.5979   -3.6734    2.6769 N   0  0  0  0  0  0  0  0  0  0  0  0
   -2.7673   -3.2721    1.6096 C   0  0  0  0  0  0  0  0  0  0  0  0
   -3.1357   -2.4775    0.5253 C   0  0  0  0  0  0  0  0  0  0  0  0
    3.7062    4.0167   -1.8390 H   0  0  0  0  0  0  0  0  0  0  0  0
    4.5848    2.4358   -1.7333 H   0  0  0  0  0  0  0  0  0  0  0  0
    4.5931    3.5612   -0.3291 H   0  0  0  0  0  0  0  0  0  0  0  0
   -0.7965    2.7588    1.5262 H   0  0  0  0  0  0  0  0  0  0  0  0
    0.5508    2.4596    2.6962 H   0  0  0  0  0  0  0  0  0  0  0  0
   -0.3329    1.0664    1.9767 H   0  0  0  0  0  0  0  0  0  0  0  0
   -1.0576    0.4558   -0.3280 H   0  0  0  0  0  0  0  0  0  0  0  0
    2.8452    1.5155   -3.2669 H   0  0  0  0  0  0  0  0  0  0  0  0
   -3.5118   -0.9617   -1.6122 H   0  0  0  0  0  0  0  0  0  0  0  0
   -0.0759   -2.4590   -1.0220 H   0  0  0  0  0  0  0  0  0  0  0  0
    0.4910   -3.8609    0.9253 H   0  0  0  0  0  0  0  0  0  0  0  0
   -1.1101   -5.6131    2.7506 H   0  0  0  0  0  0  0  0  0  0  0  0
   -0.6393   -4.1131    3.6812 H   0  0  0  0  0  0  0  0  0  0  0  0
   -3.2608   -5.5053    3.6738 H   0  0  0  0  0  0  0  0  0  0  0  0
   -2.7919   -4.0126    4.6000 H   0  0  0  0  0  0  0  0  0  0  0  0
   -4.6059   -3.4261    2.7914 H   0  0  0  0  0  0  0  0  0  0  0  0
   -4.1484   -2.1033    0.4439 H   0  0  0  0  0  0  0  0  0  0  0  0
  1  2  1  0
  2  3  1  0
  3  4  2  0
  3  5  1  0
  5  6  1  0
  5  7  1  0
  7  8  2  0
  8  9  1  0
  9 10  2  0
 10 11  1  0
 10 12  1  0
 12 13  2  0
  9 14  1  0
 14 15  2  0
 14 16  2  0
 14 17  1  0
 17 18  1  0
 18 19  2  0
 19 20  1  0
 20 21  2  0
 21 22  1  0
 22 23  1  0
 23 24  1  0
 24 25  1  0
 25 26  2  0
 13  2  1  0
  7 13  1  0
 18 26  1  0
 21 25  1  0
  1 27  1  0
  1 28  1  0
  1 29  1  0
  6 30  1  0
  6 31  1  0
  6 32  1  0
  8 33  1  0
 12 34  1  0
 17 35  1  0
 19 36  1  0
 20 37  1  0
 22 38  1  0
 22 39  1  0
 23 40  1  0
 23 41  1  0
 24 42  1  0
 26 43  1  0
M  END
$$$$
