
     RDKit          3D

 46 48  0  0  0  0  0  0  0  0999 V2000
   -3.2422   -1.7682    1.4426 C   0  0  0  0  0  0  0  0  0  0  0  0
   -2.5803   -0.5888    1.8882 O   0  0  0  0  0  0  0  0  0  0  0  0
   -2.9542    0.7137    1.5255 C   0  0  0  0  0  0  0  0  0  0  0  0
   -4.0494    0.9786    0.6813 C   0  0  0  0  0  0  0  0  0  0  0  0
   -4.3674    2.2945    0.3341 C   0  0  0  0  0  0  0  0  0  0  0  0
   -3.5969    3.3549    0.8166 C   0  0  0  0  0  0  0  0  0  0  0  0
   -2.5073    3.1064    1.6644 C   0  0  0  0  0  0  0  0  0  0  0  0
   -2.1975    1.7830    2.0189 C   0  0  0  0  0  0  0  0  0  0  0  0
   -1.6204    4.2412    2.1137 C   0  0  0  0  0  0  0  0  0  0  0  0
   -0.6455    4.6735    1.0095 C   0  0  0  0  0  0  0  0  0  0  0  0
    0.2697    3.5514    0.6103 C   0  0  0  0  0  0  0  0  0  0  0  0
    1.3752    3.4123    1.1995 O   0  0  0  0  0  0  0  0  0  0  0  0
   -0.1284    2.6369   -0.4236 N   0  0  0  0  0  0  0  0  0  0  0  0
    0.3949    1.3059   -0.5748 C   0  0  0  0  0  0  0  0  0  0  0  0
    0.3736    0.7002   -1.8396 C   0  0  0  0  0  0  0  0  0  0  0  0
    0.8409   -0.6061   -2.0098 C   0  0  0  0  0  0  0  0  0  0  0  0
    1.3338   -1.3317   -0.9118 C   0  0  0  0  0  0  0  0  0  0  0  0
    1.3093   -0.7461    0.3607 C   0  0  0  0  0  0  0  0  0  0  0  0
    0.8502    0.5631    0.5300 C   0  0  0  0  0  0  0  0  0  0  0  0
    1.8017   -2.6827   -1.0586 N   0  0  0  0  0  0  0  0  0  0  0  0
    2.5854   -3.1432   -2.1691 C   0  0  0  0  0  0  0  0  0  0  0  0
    3.1128   -2.2628   -3.0650 N   0  0  0  0  0  0  0  0  0  0  0  0
    3.8879   -2.6897   -4.0957 C   0  0  0  0  0  0  0  0  0  0  0  0
    4.1637   -4.0481   -4.2407 C   0  0  0  0  0  0  0  0  0  0  0  0
    3.6262   -4.9371   -3.3107 C   0  0  0  0  0  0  0  0  0  0  0  0
    2.8542   -4.4711   -2.2946 N   0  0  0  0  0  0  0  0  0  0  0  0
   -3.1916   -1.8379    0.3353 H   0  0  0  0  0  0  0  0  0  0  0  0
   -2.7365   -2.6544    1.8778 H   0  0  0  0  0  0  0  0  0  0  0  0
   -4.3015   -1.7619    1.7784 H   0  0  0  0  0  0  0  0  0  0  0  0
   -4.6559    0.1763    0.2837 H   0  0  0  0  0  0  0  0  0  0  0  0
   -5.2064    2.4921   -0.3205 H   0  0  0  0  0  0  0  0  0  0  0  0
   -3.8406    4.3677    0.5203 H   0  0  0  0  0  0  0  0  0  0  0  0
   -1.3501    1.5780    2.6613 H   0  0  0  0  0  0  0  0  0  0  0  0
   -1.0471    3.9521    3.0223 H   0  0  0  0  0  0  0  0  0  0  0  0
   -2.2532    5.1105    2.3957 H   0  0  0  0  0  0  0  0  0  0  0  0
   -1.2125    5.0320    0.1234 H   0  0  0  0  0  0  0  0  0  0  0  0
   -0.0381    5.5280    1.3782 H   0  0  0  0  0  0  0  0  0  0  0  0
   -0.8483    2.9607   -1.1081 H   0  0  0  0  0  0  0  0  0  0  0  0
   -0.0069    1.2430   -2.6960 H   0  0  0  0  0  0  0  0  0  0  0  0
    0.7956   -1.0550   -2.9932 H   0  0  0  0  0  0  0  0  0  0  0  0
    1.6549   -1.3037    1.2227 H   0  0  0  0  0  0  0  0  0  0  0  0
    0.8291    0.9793    1.5276 H   0  0  0  0  0  0  0  0  0  0  0  0
    1.6556   -3.3438   -0.2627 H   0  0  0  0  0  0  0  0  0  0  0  0
    4.2926   -1.9742   -4.7985 H   0  0  0  0  0  0  0  0  0  0  0  0
    4.7836   -4.4037   -5.0538 H   0  0  0  0  0  0  0  0  0  0  0  0
    3.8242   -5.9971   -3.3941 H   0  0  0  0  0  0  0  0  0  0  0  0
  1  2  1  0
  2  3  1  0
  3  4  2  0
  4  5  1  0
  5  6  2  0
  6  7  1  0
  7  8  2  0
  7  9  1  0
  9 10  1  0
 10 11  1  0
 11 12  2  0
 11 13  1  0
 13 14  1  0
 14 15  2  0
 15 16  1  0
 16 17  2  0
 17 18  1  0
 18 19  2  0
 17 20  1  0
 20 21  1  0
 21 22  2  0
 22 23  1  0
 23 24  2  0
 24 25  1  0
 25 26  2  0
  3  8  1  0
 14 19  1  0
 21 26  1  0
  1 27  1  0
  1 28  1  0
  1 29  1  0
  4 30  1  0
  5 31  1  0
  6 32  1  0
  8 33  1  0
  9 34  1  0
  9 35  1  0
 10 36  1  0
 10 37  1  0
 13 38  1  0
 15 39  1  0
 16 40  1  0
 18 41  1  0
 19 42  1  0
 20 43  1  0
 23 44  1  0
 24 45  1  0
 25 46  1  0
M  END
$$$$
