
     RDKit          3D

 45 48  0  0  0  0  0  0  0  0999 V2000
   -3.9356   -0.5076   -1.3398 C   0  0  0  0  0  0  0  0  0  0  0  0
   -4.3916    0.3733   -0.3557 C   0  0  0  0  0  0  0  0  0  0  0  0
   -3.8661    0.3112    0.9388 C   0  0  0  0  0  0  0  0  0  0  0  0
   -2.8683   -0.6236    1.2556 C   0  0  0  0  0  0  0  0  0  0  0  0
   -2.3346   -0.6624    2.5903 N   0  0  0  0  0  0  0  0  0  0  0  0
   -0.9405   -0.8356    2.8831 C   0  0  0  0  0  0  0  0  0  0  0  0
   -0.0241   -0.9449    1.8669 N   0  0  0  0  0  0  0  0  0  0  0  0
    1.3148   -1.0607    2.1103 C   0  0  0  0  0  0  0  0  0  0  0  0
    2.2407   -1.1786    1.0682 O   0  0  0  0  0  0  0  0  0  0  0  0
    1.8632   -1.2492   -0.3076 C   0  0  0  0  0  0  0  0  0  0  0  0
    1.4007    0.1218   -0.8388 C   0  0  0  0  0  0  0  0  0  0  0  0
    0.8291   -0.0139   -2.2730 C   0  0  0  0  0  0  0  0  0  0  0  0
    0.8821    1.2980   -3.0838 C   0  0  0  0  0  0  0  0  0  0  0  0
    0.8522    2.5327   -2.1782 C   0  0  0  0  0  0  0  0  0  0  0  0
    2.0553    2.5582   -1.2143 C   0  0  0  0  0  0  0  0  0  0  0  0
    2.5429    1.1539   -0.7991 C   0  0  0  0  0  0  0  0  0  0  0  0
    1.7203   -1.0581    3.4354 C   0  0  0  0  0  0  0  0  0  0  0  0
    2.9454   -1.1517    3.9625 N   0  0  0  0  0  0  0  0  0  0  0  0
    2.7233   -1.0928    5.3004 C   0  0  0  0  0  0  0  0  0  0  0  0
    1.4086   -0.9662    5.6326 N   0  0  0  0  0  0  0  0  0  0  0  0
    0.8109   -0.9495    4.4297 C   0  0  0  0  0  0  0  0  0  0  0  0
   -0.5173   -0.8334    4.1857 N   0  0  0  0  0  0  0  0  0  0  0  0
   -2.4365   -1.5270    0.2662 C   0  0  0  0  0  0  0  0  0  0  0  0
   -2.9628   -1.4604   -1.0275 C   0  0  0  0  0  0  0  0  0  0  0  0
   -4.3424   -0.4577   -2.3415 H   0  0  0  0  0  0  0  0  0  0  0  0
   -5.1516    1.1056   -0.5961 H   0  0  0  0  0  0  0  0  0  0  0  0
   -4.2230    1.0028    1.6916 H   0  0  0  0  0  0  0  0  0  0  0  0
   -2.9624   -0.3875    3.3796 H   0  0  0  0  0  0  0  0  0  0  0  0
    1.0539   -2.0026   -0.4317 H   0  0  0  0  0  0  0  0  0  0  0  0
    2.7388   -1.5991   -0.8952 H   0  0  0  0  0  0  0  0  0  0  0  0
    0.5834    0.4961   -0.1846 H   0  0  0  0  0  0  0  0  0  0  0  0
    1.3860   -0.7915   -2.8413 H   0  0  0  0  0  0  0  0  0  0  0  0
   -0.2270   -0.3559   -2.2006 H   0  0  0  0  0  0  0  0  0  0  0  0
    0.0240    1.3335   -3.7894 H   0  0  0  0  0  0  0  0  0  0  0  0
    1.8149    1.3216   -3.6895 H   0  0  0  0  0  0  0  0  0  0  0  0
   -0.0942    2.5286   -1.5933 H   0  0  0  0  0  0  0  0  0  0  0  0
    0.8569    3.4526   -2.8018 H   0  0  0  0  0  0  0  0  0  0  0  0
    1.7678    3.1320   -0.3064 H   0  0  0  0  0  0  0  0  0  0  0  0
    2.8995    3.1006   -1.6934 H   0  0  0  0  0  0  0  0  0  0  0  0
    3.3534    0.8280   -1.4884 H   0  0  0  0  0  0  0  0  0  0  0  0
    2.9751    1.2119    0.2237 H   0  0  0  0  0  0  0  0  0  0  0  0
    3.8590   -1.2467    3.4659 H   0  0  0  0  0  0  0  0  0  0  0  0
    3.5161   -1.1411    6.0351 H   0  0  0  0  0  0  0  0  0  0  0  0
   -1.7091   -2.2943    0.4954 H   0  0  0  0  0  0  0  0  0  0  0  0
   -2.6208   -2.1523   -1.7863 H   0  0  0  0  0  0  0  0  0  0  0  0
  1  2  2  0
  2  3  1  0
  3  4  2  0
  4  5  1  0
  5  6  1  0
  6  7  2  0
  7  8  1  0
  8  9  1  0
  9 10  1  0
 10 11  1  0
 11 12  1  0
 12 13  1  0
 13 14  1  0
 14 15  1  0
 15 16  1  0
  8 17  2  0
 17 18  1  0
 18 19  1  0
 19 20  2  0
 20 21  1  0
 21 22  2  0
  4 23  1  0
 23 24  2  0
 24  1  1  0
 22  6  1  0
 16 11  1  0
 21 17  1  0
  1 25  1  0
  2 26  1  0
  3 27  1  0
  5 28  1  0
 10 29  1  0
 10 30  1  0
 11 31  1  0
 12 32  1  0
 12 33  1  0
 13 34  1  0
 13 35  1  0
 14 36  1  0
 14 37  1  0
 15 38  1  0
 15 39  1  0
 16 40  1  0
 16 41  1  0
 18 42  1  0
 19 43  1  0
 23 44  1  0
 24 45  1  0
M  END
$$$$
