
     RDKit          3D

 40 43  0  0  0  0  0  0  0  0999 V2000
    0.4431    2.6593    0.1896 O   0  0  0  0  0  0  0  0  0  0  0  0
   -0.0409    1.5018    0.3252 C   0  0  0  0  0  0  0  0  0  0  0  0
    0.6554    0.5316    1.1217 N   0  0  0  0  0  0  0  0  0  0  0  0
    2.0400    0.6605    1.4660 C   0  0  0  0  0  0  0  0  0  0  0  0
    2.5297    0.3767    2.6928 N   0  0  0  0  0  0  0  0  0  0  0  0
    3.8442    0.5739    2.6466 N   0  0  0  0  0  0  0  0  0  0  0  0
    4.1241    0.9614    1.3878 C   0  0  0  0  0  0  0  0  0  0  0  0
    5.3834    1.2426    0.8644 C   0  0  0  0  0  0  0  0  0  0  0  0
    5.4582    1.5733   -0.4992 C   0  0  0  0  0  0  0  0  0  0  0  0
    4.2927    1.5974   -1.2919 C   0  0  0  0  0  0  0  0  0  0  0  0
    3.0519    1.3003   -0.7073 C   0  0  0  0  0  0  0  0  0  0  0  0
    3.0254    1.0177    0.6217 N   0  0  0  0  0  0  0  0  0  0  0  0
   -1.3434    1.1745   -0.3032 C   0  0  0  0  0  0  0  0  0  0  0  0
   -2.1998    2.2027   -0.7350 C   0  0  0  0  0  0  0  0  0  0  0  0
   -3.4209    1.8987   -1.3409 C   0  0  0  0  0  0  0  0  0  0  0  0
   -3.8042    0.5685   -1.5198 C   0  0  0  0  0  0  0  0  0  0  0  0
   -2.9731   -0.4726   -1.0857 C   0  0  0  0  0  0  0  0  0  0  0  0
   -1.7317   -0.1635   -0.5007 C   0  0  0  0  0  0  0  0  0  0  0  0
   -3.3734   -1.8358   -1.3097 N   0  0  0  0  0  0  0  0  0  0  0  0
   -3.0052   -2.9399   -0.4647 C   0  0  0  0  0  0  0  0  0  0  0  0
   -2.8823   -4.2229   -1.0203 C   0  0  0  0  0  0  0  0  0  0  0  0
   -2.5479   -5.3144   -0.2126 C   0  0  0  0  0  0  0  0  0  0  0  0
   -2.3486   -5.1357    1.1588 C   0  0  0  0  0  0  0  0  0  0  0  0
   -2.4916   -3.8667    1.7259 C   0  0  0  0  0  0  0  0  0  0  0  0
   -2.8263   -2.7730    0.9215 C   0  0  0  0  0  0  0  0  0  0  0  0
    0.0964   -0.1859    1.6352 H   0  0  0  0  0  0  0  0  0  0  0  0
    6.2724    1.1977    1.4801 H   0  0  0  0  0  0  0  0  0  0  0  0
    6.4180    1.7965   -0.9466 H   0  0  0  0  0  0  0  0  0  0  0  0
    4.3555    1.8332   -2.3463 H   0  0  0  0  0  0  0  0  0  0  0  0
    2.1535    1.2813   -1.3088 H   0  0  0  0  0  0  0  0  0  0  0  0
   -1.9272    3.2423   -0.6022 H   0  0  0  0  0  0  0  0  0  0  0  0
   -4.0723    2.6970   -1.6726 H   0  0  0  0  0  0  0  0  0  0  0  0
   -4.7534    0.3472   -1.9915 H   0  0  0  0  0  0  0  0  0  0  0  0
   -1.0591   -0.9671   -0.2323 H   0  0  0  0  0  0  0  0  0  0  0  0
   -3.9718   -2.0379   -2.1430 H   0  0  0  0  0  0  0  0  0  0  0  0
   -3.0361   -4.3737   -2.0814 H   0  0  0  0  0  0  0  0  0  0  0  0
   -2.4451   -6.2991   -0.6498 H   0  0  0  0  0  0  0  0  0  0  0  0
   -2.0912   -5.9816    1.7831 H   0  0  0  0  0  0  0  0  0  0  0  0
   -2.3506   -3.7316    2.7905 H   0  0  0  0  0  0  0  0  0  0  0  0
   -2.9601   -1.8033    1.3832 H   0  0  0  0  0  0  0  0  0  0  0  0
  1  2  2  0
  2  3  1  0
  3  4  1  0
  4  5  2  0
  5  6  1  0
  6  7  2  0
  7  8  1  0
  8  9  2  0
  9 10  1  0
 10 11  2  0
 11 12  1  0
  2 13  1  0
 13 14  2  0
 14 15  1  0
 15 16  2  0
 16 17  1  0
 17 18  2  0
 17 19  1  0
 19 20  1  0
 20 21  2  0
 21 22  1  0
 22 23  2  0
 23 24  1  0
 24 25  2  0
 12  4  1  0
 12  7  1  0
 13 18  1  0
 20 25  1  0
  3 26  1  0
  8 27  1  0
  9 28  1  0
 10 29  1  0
 11 30  1  0
 14 31  1  0
 15 32  1  0
 16 33  1  0
 18 34  1  0
 19 35  1  0
 21 36  1  0
 22 37  1  0
 23 38  1  0
 24 39  1  0
 25 40  1  0
M  END
$$$$
