
     RDKit          3D

 44 47  0  0  0  0  0  0  0  0999 V2000
    1.7230   -4.2370   -1.6690 O   0  0  0  0  0  0  0  0  0  0  0  0
    1.5964   -3.1337   -1.0744 C   0  0  0  0  0  0  0  0  0  0  0  0
    0.7840   -2.9465    0.1436 C   0  0  0  0  0  0  0  0  0  0  0  0
    0.9572   -1.4426    0.4720 C   0  0  0  0  0  0  0  0  0  0  0  0
   -0.3270   -0.7321    0.4140 N   0  0  0  0  0  0  0  0  0  0  0  0
   -0.4956    0.5875    0.9473 C   0  0  0  0  0  0  0  0  0  0  0  0
    0.5301    1.2160    1.5836 N   0  0  0  0  0  0  0  0  0  0  0  0
    0.3778    2.4661    2.0909 C   0  0  0  0  0  0  0  0  0  0  0  0
   -0.8440    3.1247    1.9623 C   0  0  0  0  0  0  0  0  0  0  0  0
   -1.8869    2.4756    1.3007 C   0  0  0  0  0  0  0  0  0  0  0  0
   -1.6930    1.2181    0.8164 N   0  0  0  0  0  0  0  0  0  0  0  0
   -3.1271    3.1161    1.1815 O   0  0  0  0  0  0  0  0  0  0  0  0
   -4.1472    2.7462    0.2926 C   0  0  0  0  0  0  0  0  0  0  0  0
   -5.4768    2.9873    0.6622 C   0  0  0  0  0  0  0  0  0  0  0  0
   -6.5246    2.6430   -0.1976 C   0  0  0  0  0  0  0  0  0  0  0  0
   -6.2494    2.0665   -1.4403 C   0  0  0  0  0  0  0  0  0  0  0  0
   -4.9258    1.8415   -1.8278 C   0  0  0  0  0  0  0  0  0  0  0  0
   -3.8758    2.1840   -0.9699 C   0  0  0  0  0  0  0  0  0  0  0  0
    1.9453   -0.8628   -0.5836 C   0  0  0  0  0  0  0  0  0  0  0  0
    3.2588   -0.3534    0.0357 C   0  0  0  0  0  0  0  0  0  0  0  0
    4.3405   -0.0372   -1.0291 C   0  0  0  0  0  0  0  0  0  0  0  0
    3.9982   -0.5205   -2.4539 C   0  0  0  0  0  0  0  0  0  0  0  0
    3.3594   -1.9143   -2.4460 C   0  0  0  0  0  0  0  0  0  0  0  0
    2.2518   -1.9550   -1.4915 N   0  0  0  0  0  0  0  0  0  0  0  0
    1.1953   -3.5750    0.9627 H   0  0  0  0  0  0  0  0  0  0  0  0
   -0.2694   -3.2387   -0.0524 H   0  0  0  0  0  0  0  0  0  0  0  0
    1.3685   -1.3569    1.5034 H   0  0  0  0  0  0  0  0  0  0  0  0
   -1.1548   -1.1785   -0.0421 H   0  0  0  0  0  0  0  0  0  0  0  0
    1.2050    2.9473    2.5951 H   0  0  0  0  0  0  0  0  0  0  0  0
   -0.9776    4.1201    2.3661 H   0  0  0  0  0  0  0  0  0  0  0  0
   -5.6982    3.4348    1.6229 H   0  0  0  0  0  0  0  0  0  0  0  0
   -7.5495    2.8247    0.0991 H   0  0  0  0  0  0  0  0  0  0  0  0
   -7.0608    1.8023   -2.1061 H   0  0  0  0  0  0  0  0  0  0  0  0
   -4.7129    1.4099   -2.7973 H   0  0  0  0  0  0  0  0  0  0  0  0
   -2.8585    2.0369   -1.3060 H   0  0  0  0  0  0  0  0  0  0  0  0
    1.4707   -0.0366   -1.1596 H   0  0  0  0  0  0  0  0  0  0  0  0
    3.6588   -1.1320    0.7229 H   0  0  0  0  0  0  0  0  0  0  0  0
    3.0566    0.5547    0.6430 H   0  0  0  0  0  0  0  0  0  0  0  0
    5.3000   -0.5041   -0.7156 H   0  0  0  0  0  0  0  0  0  0  0  0
    4.5122    1.0606   -1.0638 H   0  0  0  0  0  0  0  0  0  0  0  0
    3.2888    0.1977   -2.9208 H   0  0  0  0  0  0  0  0  0  0  0  0
    4.9193   -0.5352   -3.0754 H   0  0  0  0  0  0  0  0  0  0  0  0
    4.1241   -2.6681   -2.1580 H   0  0  0  0  0  0  0  0  0  0  0  0
    2.9827   -2.1570   -3.4624 H   0  0  0  0  0  0  0  0  0  0  0  0
  1  2  2  0
  2  3  1  0
  3  4  1  0
  4  5  1  0
  5  6  1  0
  6  7  2  0
  7  8  1  0
  8  9  2  0
  9 10  1  0
 10 11  2  0
 10 12  1  0
 12 13  1  0
 13 14  2  0
 14 15  1  0
 15 16  2  0
 16 17  1  0
 17 18  2  0
  4 19  1  0
 19 20  1  0
 20 21  1  0
 21 22  1  0
 22 23  1  0
 23 24  1  0
 24  2  1  0
  6 11  1  0
 13 18  1  0
 24 19  1  0
  3 25  1  0
  3 26  1  0
  4 27  1  0
  5 28  1  0
  8 29  1  0
  9 30  1  0
 14 31  1  0
 15 32  1  0
 16 33  1  0
 17 34  1  0
 18 35  1  0
 19 36  1  0
 20 37  1  0
 20 38  1  0
 21 39  1  0
 21 40  1  0
 22 41  1  0
 22 42  1  0
 23 43  1  0
 23 44  1  0
M  END
$$$$
