
     RDKit          3D

 34 35  0  0  0  0  0  0  0  0999 V2000
   -2.5000   -5.5665   -4.3109 N   0  0  0  0  0  0  0  0  0  0  0  0
   -1.6435   -4.7181   -3.5461 C   0  0  0  0  0  0  0  0  0  0  0  0
   -0.4363   -5.2039   -3.0342 C   0  0  0  0  0  0  0  0  0  0  0  0
    0.3836   -4.3543   -2.2900 C   0  0  0  0  0  0  0  0  0  0  0  0
   -0.0047   -3.0264   -2.0482 C   0  0  0  0  0  0  0  0  0  0  0  0
   -1.2211   -2.5791   -2.5944 C   0  0  0  0  0  0  0  0  0  0  0  0
   -2.0000   -3.4257   -3.3194 N   0  0  0  0  0  0  0  0  0  0  0  0
    0.8735   -2.1282   -1.2604 C   0  0  0  0  0  0  0  0  0  0  0  0
    2.1181   -2.3339   -1.2660 O   0  0  0  0  0  0  0  0  0  0  0  0
    0.3308   -1.0304   -0.5028 N   0  0  0  0  0  0  0  0  0  0  0  0
    1.1321   -0.1440    0.2977 C   0  0  0  0  0  0  0  0  0  0  0  0
    2.1481   -0.6470    1.1296 C   0  0  0  0  0  0  0  0  0  0  0  0
    2.9028    0.2164    1.9257 C   0  0  0  0  0  0  0  0  0  0  0  0
    2.6443    1.5882    1.9110 C   0  0  0  0  0  0  0  0  0  0  0  0
    3.5932    2.6692    2.9153 Cl  0  0  0  0  0  0  0  0  0  0  0  0
    1.6235    2.0988    1.1040 C   0  0  0  0  0  0  0  0  0  0  0  0
    0.8559    1.2370    0.2952 C   0  0  0  0  0  0  0  0  0  0  0  0
   -0.1766    1.7147   -0.5278 O   0  0  0  0  0  0  0  0  0  0  0  0
   -0.5628    3.0827   -0.6332 C   0  0  0  0  0  0  0  0  0  0  0  0
   -1.7174    3.2137   -1.6174 C   0  0  0  0  0  0  0  0  0  0  0  0
   -2.7976    2.4710   -1.1761 F   0  0  0  0  0  0  0  0  0  0  0  0
   -2.0917    4.5409   -1.7196 F   0  0  0  0  0  0  0  0  0  0  0  0
   -1.3275    2.7557   -2.8630 F   0  0  0  0  0  0  0  0  0  0  0  0
   -2.2429   -6.5613   -4.4982 H   0  0  0  0  0  0  0  0  0  0  0  0
   -3.3991   -5.1985   -4.6935 H   0  0  0  0  0  0  0  0  0  0  0  0
   -0.1345   -6.2288   -3.2095 H   0  0  0  0  0  0  0  0  0  0  0  0
    1.3151   -4.7385   -1.8926 H   0  0  0  0  0  0  0  0  0  0  0  0
   -1.5450   -1.5550   -2.4764 H   0  0  0  0  0  0  0  0  0  0  0  0
   -0.6906   -0.8253   -0.5619 H   0  0  0  0  0  0  0  0  0  0  0  0
    2.3412   -1.7103    1.1836 H   0  0  0  0  0  0  0  0  0  0  0  0
    3.6827   -0.1837    2.5611 H   0  0  0  0  0  0  0  0  0  0  0  0
    1.4361    3.1638    1.1140 H   0  0  0  0  0  0  0  0  0  0  0  0
   -0.8863    3.4591    0.3616 H   0  0  0  0  0  0  0  0  0  0  0  0
    0.2963    3.6882   -0.9956 H   0  0  0  0  0  0  0  0  0  0  0  0
  1  2  1  0
  2  3  2  0
  3  4  1  0
  4  5  2  0
  5  6  1  0
  6  7  2  0
  5  8  1  0
  8  9  2  0
  8 10  1  0
 10 11  1  0
 11 12  2  0
 12 13  1  0
 13 14  2  0
 14 15  1  0
 14 16  1  0
 16 17  2  0
 17 18  1  0
 18 19  1  0
 19 20  1  0
 20 21  1  0
 20 22  1  0
 20 23  1  0
  2  7  1  0
 11 17  1  0
  1 24  1  0
  1 25  1  0
  3 26  1  0
  4 27  1  0
  6 28  1  0
 10 29  1  0
 12 30  1  0
 13 31  1  0
 16 32  1  0
 19 33  1  0
 19 34  1  0
M  END
$$$$
