
     RDKit          3D

 45 47  0  0  0  0  0  0  0  0999 V2000
    0.0631   -0.1275   -2.2554 C   0  0  0  0  0  0  0  0  0  0  0  0
   -1.0247   -0.4425   -1.2260 C   0  0  0  0  0  0  0  0  0  0  0  0
   -0.4478   -0.4433    0.1648 C   0  0  0  0  0  0  0  0  0  0  0  0
    0.0562   -1.5001    0.6345 O   0  0  0  0  0  0  0  0  0  0  0  0
   -0.4254    0.7719    0.9306 N   0  0  0  0  0  0  0  0  0  0  0  0
    0.1218    0.8543    2.2948 C   0  0  0  0  0  0  0  0  0  0  0  0
    1.6598    0.6764    2.3441 C   0  0  0  0  0  0  0  0  0  0  0  0
    2.3710    1.5929    1.3785 C   0  0  0  0  0  0  0  0  0  0  0  0
    2.7324    2.8958    1.7623 C   0  0  0  0  0  0  0  0  0  0  0  0
    3.3608    3.7507    0.8514 C   0  0  0  0  0  0  0  0  0  0  0  0
    3.6336    3.3131   -0.4473 C   0  0  0  0  0  0  0  0  0  0  0  0
    3.2833    2.0177   -0.8359 C   0  0  0  0  0  0  0  0  0  0  0  0
    2.6571    1.1593    0.0724 C   0  0  0  0  0  0  0  0  0  0  0  0
   -0.3919    2.0856    3.0589 C   0  0  0  0  0  0  0  0  0  0  0  0
   -1.1400    1.1770    4.0243 C   0  0  0  0  0  0  0  0  0  0  0  0
   -0.6342   -0.0494    3.2782 C   0  0  0  0  0  0  0  0  0  0  0  0
   -1.6618   -1.7302   -1.5177 N   0  0  0  0  0  0  0  0  0  0  0  0
   -2.9726   -2.0064   -1.3728 C   0  0  0  0  0  0  0  0  0  0  0  0
   -3.1735   -3.3396   -1.6591 C   0  0  0  0  0  0  0  0  0  0  0  0
   -1.9149   -3.8174   -1.9772 C   0  0  0  0  0  0  0  0  0  0  0  0
   -1.0066   -2.8290   -1.8626 N   0  0  0  0  0  0  0  0  0  0  0  0
   -1.5686   -5.2400   -2.2803 C   0  0  0  0  0  0  0  0  0  0  0  0
   -0.3694   -5.2988   -2.9667 F   0  0  0  0  0  0  0  0  0  0  0  0
   -1.4504   -5.9456   -1.0977 F   0  0  0  0  0  0  0  0  0  0  0  0
   -2.5597   -5.8126   -3.0566 F   0  0  0  0  0  0  0  0  0  0  0  0
   -0.3679   -0.1515   -3.2787 H   0  0  0  0  0  0  0  0  0  0  0  0
    0.8897   -0.8678   -2.1961 H   0  0  0  0  0  0  0  0  0  0  0  0
    0.4768    0.8876   -2.0740 H   0  0  0  0  0  0  0  0  0  0  0  0
   -1.7929    0.3601   -1.2938 H   0  0  0  0  0  0  0  0  0  0  0  0
   -0.7833    1.6423    0.4761 H   0  0  0  0  0  0  0  0  0  0  0  0
    2.0340    0.8591    3.3759 H   0  0  0  0  0  0  0  0  0  0  0  0
    1.9165   -0.3788    2.1090 H   0  0  0  0  0  0  0  0  0  0  0  0
    2.5356    3.2492    2.7658 H   0  0  0  0  0  0  0  0  0  0  0  0
    3.6366    4.7530    1.1527 H   0  0  0  0  0  0  0  0  0  0  0  0
    4.1188    3.9766   -1.1514 H   0  0  0  0  0  0  0  0  0  0  0  0
    3.4966    1.6781   -1.8412 H   0  0  0  0  0  0  0  0  0  0  0  0
    2.3959    0.1573   -0.2424 H   0  0  0  0  0  0  0  0  0  0  0  0
   -1.0856    2.7303    2.4764 H   0  0  0  0  0  0  0  0  0  0  0  0
    0.3989    2.6653    3.5805 H   0  0  0  0  0  0  0  0  0  0  0  0
   -0.7444    1.2377    5.0618 H   0  0  0  0  0  0  0  0  0  0  0  0
   -2.2434    1.2949    3.9527 H   0  0  0  0  0  0  0  0  0  0  0  0
   -1.4679   -0.6215    2.8146 H   0  0  0  0  0  0  0  0  0  0  0  0
    0.0294   -0.6795    3.9108 H   0  0  0  0  0  0  0  0  0  0  0  0
   -3.7267   -1.2959   -1.0596 H   0  0  0  0  0  0  0  0  0  0  0  0
   -4.1038   -3.8906   -1.6184 H   0  0  0  0  0  0  0  0  0  0  0  0
  1  2  1  0
  2  3  1  0
  3  4  2  0
  3  5  1  0
  5  6  1  0
  6  7  1  0
  7  8  1  0
  8  9  2  0
  9 10  1  0
 10 11  2  0
 11 12  1  0
 12 13  2  0
  6 14  1  0
 14 15  1  0
 15 16  1  0
  2 17  1  0
 17 18  1  0
 18 19  2  0
 19 20  1  0
 20 21  2  0
 20 22  1  0
 22 23  1  0
 22 24  1  0
 22 25  1  0
 16  6  1  0
  8 13  1  0
 21 17  1  0
  1 26  1  0
  1 27  1  0
  1 28  1  0
  2 29  1  0
  5 30  1  0
  7 31  1  0
  7 32  1  0
  9 33  1  0
 10 34  1  0
 11 35  1  0
 12 36  1  0
 13 37  1  0
 14 38  1  0
 14 39  1  0
 15 40  1  0
 15 41  1  0
 16 42  1  0
 16 43  1  0
 18 44  1  0
 19 45  1  0
M  END
$$$$
