
     RDKit          3D

 39 41  0  0  0  0  0  0  0  0999 V2000
   -3.8619    0.6315   -0.4142 C   0  0  0  0  0  0  0  0  0  0  0  0
   -4.0017   -0.5443    0.5179 C   0  0  0  0  0  0  0  0  0  0  0  0
   -5.2687   -1.1350    0.6685 C   0  0  0  0  0  0  0  0  0  0  0  0
   -5.4395   -2.2538    1.4856 C   0  0  0  0  0  0  0  0  0  0  0  0
   -4.3496   -2.7961    2.1649 C   0  0  0  0  0  0  0  0  0  0  0  0
   -3.0880   -2.2113    2.0438 C   0  0  0  0  0  0  0  0  0  0  0  0
   -2.9009   -1.0709    1.2433 C   0  0  0  0  0  0  0  0  0  0  0  0
   -1.5502   -0.4714    1.1781 C   0  0  0  0  0  0  0  0  0  0  0  0
   -0.5507   -1.2245    1.0214 O   0  0  0  0  0  0  0  0  0  0  0  0
   -1.3713    0.9430    1.3516 N   0  0  0  0  0  0  0  0  0  0  0  0
   -0.1523    1.6290    1.0431 C   0  0  0  0  0  0  0  0  0  0  0  0
    0.9302    1.0377    0.4953 N   0  0  0  0  0  0  0  0  0  0  0  0
    1.9420    1.9225    0.2751 C   0  0  0  0  0  0  0  0  0  0  0  0
    1.6507    3.2372    0.6536 C   0  0  0  0  0  0  0  0  0  0  0  0
    0.0860    3.2739    1.2721 S   0  0  0  0  0  0  0  0  0  0  0  0
    3.2372    1.5000   -0.3212 C   0  0  0  0  0  0  0  0  0  0  0  0
    4.4132    2.2177   -0.0266 C   0  0  0  0  0  0  0  0  0  0  0  0
    5.6399    1.8273   -0.5648 C   0  0  0  0  0  0  0  0  0  0  0  0
    5.7144    0.7164   -1.4018 C   0  0  0  0  0  0  0  0  0  0  0  0
    4.5626   -0.0099   -1.7054 C   0  0  0  0  0  0  0  0  0  0  0  0
    3.3135    0.3709   -1.1732 C   0  0  0  0  0  0  0  0  0  0  0  0
    2.1384   -0.3357   -1.4842 O   0  0  0  0  0  0  0  0  0  0  0  0
    2.0741   -1.5100   -2.2882 C   0  0  0  0  0  0  0  0  0  0  0  0
    2.7638   -2.5402   -1.6749 F   0  0  0  0  0  0  0  0  0  0  0  0
    0.7519   -1.8818   -2.4368 F   0  0  0  0  0  0  0  0  0  0  0  0
   -3.9734    1.5770    0.1553 H   0  0  0  0  0  0  0  0  0  0  0  0
   -4.6423    0.6044   -1.2044 H   0  0  0  0  0  0  0  0  0  0  0  0
   -2.8777    0.6172   -0.9276 H   0  0  0  0  0  0  0  0  0  0  0  0
   -6.1265   -0.7363    0.1407 H   0  0  0  0  0  0  0  0  0  0  0  0
   -6.4181   -2.7050    1.5870 H   0  0  0  0  0  0  0  0  0  0  0  0
   -4.4837   -3.6672    2.7932 H   0  0  0  0  0  0  0  0  0  0  0  0
   -2.2576   -2.6381    2.5935 H   0  0  0  0  0  0  0  0  0  0  0  0
   -2.1651    1.5059    1.7307 H   0  0  0  0  0  0  0  0  0  0  0  0
    2.2976    4.0973    0.5483 H   0  0  0  0  0  0  0  0  0  0  0  0
    4.3929    3.0704    0.6391 H   0  0  0  0  0  0  0  0  0  0  0  0
    6.5367    2.3849   -0.3270 H   0  0  0  0  0  0  0  0  0  0  0  0
    6.6681    0.4161   -1.8165 H   0  0  0  0  0  0  0  0  0  0  0  0
    4.6550   -0.8642   -2.3612 H   0  0  0  0  0  0  0  0  0  0  0  0
    2.5020   -1.3114   -3.2933 H   0  0  0  0  0  0  0  0  0  0  0  0
  1  2  1  0
  2  3  2  0
  3  4  1  0
  4  5  2  0
  5  6  1  0
  6  7  2  0
  7  8  1  0
  8  9  2  0
  8 10  1  0
 10 11  1  0
 11 12  2  0
 12 13  1  0
 13 14  2  0
 14 15  1  0
 13 16  1  0
 16 17  2  0
 17 18  1  0
 18 19  2  0
 19 20  1  0
 20 21  2  0
 21 22  1  0
 22 23  1  0
 23 24  1  0
 23 25  1  0
  2  7  1  0
 15 11  1  0
 16 21  1  0
  1 26  1  0
  1 27  1  0
  1 28  1  0
  3 29  1  0
  4 30  1  0
  5 31  1  0
  6 32  1  0
 10 33  1  0
 14 34  1  0
 17 35  1  0
 18 36  1  0
 19 37  1  0
 20 38  1  0
 23 39  1  0
M  END
$$$$
