
     RDKit          3D

 52 55  0  0  0  0  0  0  0  0999 V2000
   -1.6601   -3.5001   -1.0244 C   0  0  0  0  0  0  0  0  0  0  0  0
   -1.8558   -3.0067    0.4195 C   0  0  0  0  0  0  0  0  0  0  0  0
   -3.3717   -2.7811    0.6823 C   0  0  0  0  0  0  0  0  0  0  0  0
   -3.7734   -1.3381    0.3736 C   0  0  0  0  0  0  0  0  0  0  0  0
   -2.9785   -0.3451    1.2351 C   0  0  0  0  0  0  0  0  0  0  0  0
   -1.6328   -0.9207    1.7035 C   0  0  0  0  0  0  0  0  0  0  0  0
   -1.0366   -1.7774    0.6529 N   0  0  0  0  0  0  0  0  0  0  0  0
    0.3612   -2.1286    1.0056 C   0  0  0  0  0  0  0  0  0  0  0  0
    1.3622   -1.0127    0.6403 C   0  0  0  0  0  0  0  0  0  0  0  0
    1.6917   -0.9092   -0.8756 C   0  0  0  0  0  0  0  0  0  0  0  0
    2.9377   -0.0105   -1.1074 C   0  0  0  0  0  0  0  0  0  0  0  0
    2.6113    1.4482   -1.4947 C   0  0  0  0  0  0  0  0  0  0  0  0
    1.2776    1.8547   -1.0287 N   0  0  0  0  0  0  0  0  0  0  0  0
    0.1052    1.0219   -1.3303 C   0  0  0  0  0  0  0  0  0  0  0  0
    0.5151   -0.3994   -1.7332 C   0  0  0  0  0  0  0  0  0  0  0  0
    1.0804    3.1012   -0.3384 C   0  0  0  0  0  0  0  0  0  0  0  0
    0.2764    3.1555    0.7673 N   0  0  0  0  0  0  0  0  0  0  0  0
    0.0598    4.3271    1.4461 C   0  0  0  0  0  0  0  0  0  0  0  0
    0.6403    5.4903    1.0251 N   0  0  0  0  0  0  0  0  0  0  0  0
    1.4328    5.4441   -0.0715 C   0  0  0  0  0  0  0  0  0  0  0  0
    2.0487    6.4747   -0.6645 N   0  0  0  0  0  0  0  0  0  0  0  0
    2.6735    6.0119   -1.7422 N   0  0  0  0  0  0  0  0  0  0  0  0
    2.4520    4.6757   -1.8292 C   0  0  0  0  0  0  0  0  0  0  0  0
    1.6632    4.2973   -0.7599 C   0  0  0  0  0  0  0  0  0  0  0  0
   -2.1865   -4.4672   -1.1719 H   0  0  0  0  0  0  0  0  0  0  0  0
   -2.0661   -2.7629   -1.7484 H   0  0  0  0  0  0  0  0  0  0  0  0
   -0.5883   -3.6652   -1.2549 H   0  0  0  0  0  0  0  0  0  0  0  0
   -1.5282   -3.8245    1.1032 H   0  0  0  0  0  0  0  0  0  0  0  0
   -3.9974   -3.4791    0.0837 H   0  0  0  0  0  0  0  0  0  0  0  0
   -3.5962   -2.9929    1.7513 H   0  0  0  0  0  0  0  0  0  0  0  0
   -3.5861   -1.1289   -0.7023 H   0  0  0  0  0  0  0  0  0  0  0  0
   -4.8615   -1.2054    0.5573 H   0  0  0  0  0  0  0  0  0  0  0  0
   -3.5766   -0.0659    2.1298 H   0  0  0  0  0  0  0  0  0  0  0  0
   -2.8040    0.5824    0.6476 H   0  0  0  0  0  0  0  0  0  0  0  0
   -1.7836   -1.5073    2.6388 H   0  0  0  0  0  0  0  0  0  0  0  0
   -0.9707   -0.0671    1.9569 H   0  0  0  0  0  0  0  0  0  0  0  0
    0.4422   -2.3438    2.0959 H   0  0  0  0  0  0  0  0  0  0  0  0
    0.6919   -3.0585    0.4954 H   0  0  0  0  0  0  0  0  0  0  0  0
    1.0451   -0.0309    1.0430 H   0  0  0  0  0  0  0  0  0  0  0  0
    2.3026   -1.2648    1.1779 H   0  0  0  0  0  0  0  0  0  0  0  0
    1.9496   -1.9320   -1.2306 H   0  0  0  0  0  0  0  0  0  0  0  0
    3.5963   -0.0091   -0.2115 H   0  0  0  0  0  0  0  0  0  0  0  0
    3.5470   -0.4517   -1.9269 H   0  0  0  0  0  0  0  0  0  0  0  0
    2.6433    1.5485   -2.6014 H   0  0  0  0  0  0  0  0  0  0  0  0
    3.3978    2.1108   -1.0721 H   0  0  0  0  0  0  0  0  0  0  0  0
   -0.5525    0.9594   -0.4384 H   0  0  0  0  0  0  0  0  0  0  0  0
   -0.4813    1.4900   -2.1496 H   0  0  0  0  0  0  0  0  0  0  0  0
   -0.3561   -1.0756   -1.6698 H   0  0  0  0  0  0  0  0  0  0  0  0
    0.8271   -0.3946   -2.8011 H   0  0  0  0  0  0  0  0  0  0  0  0
   -0.5799    4.3313    2.3177 H   0  0  0  0  0  0  0  0  0  0  0  0
    2.0386    7.4739   -0.3626 H   0  0  0  0  0  0  0  0  0  0  0  0
    2.8244    4.0466   -2.6253 H   0  0  0  0  0  0  0  0  0  0  0  0
  1  2  1  0
  2  3  1  0
  3  4  1  0
  4  5  1  0
  5  6  1  0
  6  7  1  0
  7  8  1  0
  8  9  1  0
  9 10  1  0
 10 11  1  0
 11 12  1  0
 12 13  1  0
 13 14  1  0
 14 15  1  0
 13 16  1  0
 16 17  2  0
 17 18  1  0
 18 19  2  0
 19 20  1  0
 20 21  1  0
 21 22  1  0
 22 23  2  0
 23 24  1  0
  7  2  1  0
 15 10  1  0
 16 24  1  0
 24 20  2  0
  1 25  1  0
  1 26  1  0
  1 27  1  0
  2 28  1  0
  3 29  1  0
  3 30  1  0
  4 31  1  0
  4 32  1  0
  5 33  1  0
  5 34  1  0
  6 35  1  0
  6 36  1  0
  8 37  1  0
  8 38  1  0
  9 39  1  0
  9 40  1  0
 10 41  1  0
 11 42  1  0
 11 43  1  0
 12 44  1  0
 12 45  1  0
 14 46  1  0
 14 47  1  0
 15 48  1  0
 15 49  1  0
 18 50  1  0
 21 51  1  0
 23 52  1  0
M  END
$$$$
