
     RDKit          3D

 54 58  0  0  0  0  0  0  0  0999 V2000
   -3.7534   -0.0583    1.9863 O   0  0  0  0  0  0  0  0  0  0  0  0
   -2.7893   -0.5727    1.3556 C   0  0  0  0  0  0  0  0  0  0  0  0
   -1.4177   -0.1142    1.6485 C   0  0  0  0  0  0  0  0  0  0  0  0
   -1.1532    1.2701    1.8057 C   0  0  0  0  0  0  0  0  0  0  0  0
    0.1484    1.7308    2.0823 C   0  0  0  0  0  0  0  0  0  0  0  0
    1.1624    0.7748    2.2225 C   0  0  0  0  0  0  0  0  0  0  0  0
    0.9015   -0.5638    2.0957 C   0  0  0  0  0  0  0  0  0  0  0  0
   -0.3712   -1.0510    1.8117 C   0  0  0  0  0  0  0  0  0  0  0  0
    2.0366   -1.2652    2.2439 N   0  0  0  0  0  0  0  0  0  0  0  0
    2.9777   -0.3178    2.4610 C   0  0  0  0  0  0  0  0  0  0  0  0
    4.1969   -0.5907    2.6199 O   0  0  0  0  0  0  0  0  0  0  0  0
    2.4812    0.9506    2.4692 N   0  0  0  0  0  0  0  0  0  0  0  0
    3.2168    2.2222    2.6274 C   0  0  0  0  0  0  0  0  0  0  0  0
    4.2389    2.4263    1.4988 C   0  0  0  0  0  0  0  0  0  0  0  0
    5.6169    2.3473    2.1446 C   0  0  0  0  0  0  0  0  0  0  0  0
    5.4110    2.7175    3.6055 C   0  0  0  0  0  0  0  0  0  0  0  0
    3.9962    2.2705    3.9538 C   0  0  0  0  0  0  0  0  0  0  0  0
   -3.0480   -1.5834    0.3609 N   0  0  0  0  0  0  0  0  0  0  0  0
   -4.3170   -2.2800    0.2619 C   0  0  0  0  0  0  0  0  0  0  0  0
   -4.1846   -3.1928   -0.9490 C   0  0  0  0  0  0  0  0  0  0  0  0
   -3.0428   -2.6109   -1.7829 C   0  0  0  0  0  0  0  0  0  0  0  0
   -2.1863   -1.8272   -0.7863 C   0  0  0  0  0  0  0  0  0  0  0  0
   -3.5886   -1.7399   -2.7782 O   0  0  0  0  0  0  0  0  0  0  0  0
   -2.8614   -1.1442   -3.8272 C   0  0  0  0  0  0  0  0  0  0  0  0
   -3.5366   -0.2729   -4.6919 C   0  0  0  0  0  0  0  0  0  0  0  0
   -2.8605    0.3375   -5.7510 C   0  0  0  0  0  0  0  0  0  0  0  0
   -1.4998    0.0925   -5.9493 C   0  0  0  0  0  0  0  0  0  0  0  0
   -0.8149   -0.7748   -5.0948 C   0  0  0  0  0  0  0  0  0  0  0  0
    0.5039   -1.0235   -5.2917 F   0  0  0  0  0  0  0  0  0  0  0  0
   -1.4899   -1.3969   -4.0389 C   0  0  0  0  0  0  0  0  0  0  0  0
   -1.9530    1.9917    1.6922 H   0  0  0  0  0  0  0  0  0  0  0  0
    0.3404    2.7933    2.1703 H   0  0  0  0  0  0  0  0  0  0  0  0
   -0.5460   -2.1187    1.7317 H   0  0  0  0  0  0  0  0  0  0  0  0
    2.1671   -2.2969    2.1678 H   0  0  0  0  0  0  0  0  0  0  0  0
    2.5083    3.0774    2.6151 H   0  0  0  0  0  0  0  0  0  0  0  0
    4.1417    1.6767    0.6807 H   0  0  0  0  0  0  0  0  0  0  0  0
    4.1007    3.4398    1.0620 H   0  0  0  0  0  0  0  0  0  0  0  0
    6.0093    1.3084    2.0740 H   0  0  0  0  0  0  0  0  0  0  0  0
    6.3353    3.0403    1.6496 H   0  0  0  0  0  0  0  0  0  0  0  0
    5.4969    3.8246    3.7201 H   0  0  0  0  0  0  0  0  0  0  0  0
    6.1649    2.2182    4.2579 H   0  0  0  0  0  0  0  0  0  0  0  0
    3.5287    2.9869    4.6695 H   0  0  0  0  0  0  0  0  0  0  0  0
    4.0330    1.2714    4.4428 H   0  0  0  0  0  0  0  0  0  0  0  0
   -5.1366   -1.5453    0.1052 H   0  0  0  0  0  0  0  0  0  0  0  0
   -4.5076   -2.8722    1.1837 H   0  0  0  0  0  0  0  0  0  0  0  0
   -3.9085   -4.2134   -0.6082 H   0  0  0  0  0  0  0  0  0  0  0  0
   -5.1361   -3.2453   -1.5211 H   0  0  0  0  0  0  0  0  0  0  0  0
   -2.4696   -3.4323   -2.2695 H   0  0  0  0  0  0  0  0  0  0  0  0
   -1.8308   -0.8672   -1.2154 H   0  0  0  0  0  0  0  0  0  0  0  0
   -1.3174   -2.4476   -0.4781 H   0  0  0  0  0  0  0  0  0  0  0  0
   -4.5925   -0.0808   -4.5493 H   0  0  0  0  0  0  0  0  0  0  0  0
   -3.3939    0.9974   -6.4223 H   0  0  0  0  0  0  0  0  0  0  0  0
   -0.9766    0.5698   -6.7682 H   0  0  0  0  0  0  0  0  0  0  0  0
   -0.9388   -2.0715   -3.3959 H   0  0  0  0  0  0  0  0  0  0  0  0
  1  2  2  0
  2  3  1  0
  3  4  2  0
  4  5  1  0
  5  6  2  0
  6  7  1  0
  7  8  2  0
  7  9  1  0
  9 10  1  0
 10 11  2  0
 10 12  1  0
 12 13  1  0
 13 14  1  0
 14 15  1  0
 15 16  1  0
 16 17  1  0
  2 18  1  0
 18 19  1  0
 19 20  1  0
 20 21  1  0
 21 22  1  0
 21 23  1  0
 23 24  1  0
 24 25  2  0
 25 26  1  0
 26 27  2  0
 27 28  1  0
 28 29  1  0
 28 30  2  0
  3  8  1  0
 12  6  1  0
 17 13  1  0
 22 18  1  0
 24 30  1  0
  4 31  1  0
  5 32  1  0
  8 33  1  0
  9 34  1  0
 13 35  1  0
 14 36  1  0
 14 37  1  0
 15 38  1  0
 15 39  1  0
 16 40  1  0
 16 41  1  0
 17 42  1  0
 17 43  1  0
 19 44  1  0
 19 45  1  0
 20 46  1  0
 20 47  1  0
 21 48  1  0
 22 49  1  0
 22 50  1  0
 25 51  1  0
 26 52  1  0
 27 53  1  0
 30 54  1  0
M  END
$$$$
