
     RDKit          3D

 42 45  0  0  0  0  0  0  0  0999 V2000
   -1.4810   -1.9555    0.5246 O   0  0  0  0  0  0  0  0  0  0  0  0
   -2.0450   -0.9383    0.0375 C   0  0  0  0  0  0  0  0  0  0  0  0
   -1.4118   -0.1726   -0.9989 N   0  0  0  0  0  0  0  0  0  0  0  0
   -0.1283   -0.4849   -1.5646 C   0  0  0  0  0  0  0  0  0  0  0  0
    0.2613   -1.8067   -1.8302 C   0  0  0  0  0  0  0  0  0  0  0  0
    1.5079   -2.0676   -2.4019 C   0  0  0  0  0  0  0  0  0  0  0  0
    2.3604   -1.0000   -2.7215 C   0  0  0  0  0  0  0  0  0  0  0  0
    1.9508    0.2757   -2.4761 N   0  0  0  0  0  0  0  0  0  0  0  0
    0.7416    0.5533   -1.9208 C   0  0  0  0  0  0  0  0  0  0  0  0
    3.6495   -1.2378   -3.3103 N   0  0  0  0  0  0  0  0  0  0  0  0
    4.5461   -0.2955   -3.6621 C   0  0  0  0  0  0  0  0  0  0  0  0
    5.6535   -0.9232   -4.1893 C   0  0  0  0  0  0  0  0  0  0  0  0
    5.3572   -2.2707   -4.1264 C   0  0  0  0  0  0  0  0  0  0  0  0
    4.1339   -2.4388   -3.5885 N   0  0  0  0  0  0  0  0  0  0  0  0
   -3.4007   -0.5219    0.5370 C   0  0  0  0  0  0  0  0  0  0  0  0
   -3.6817   -0.7884    2.0136 C   0  0  0  0  0  0  0  0  0  0  0  0
   -3.4542    0.6408    1.5337 C   0  0  0  0  0  0  0  0  0  0  0  0
   -2.1371    1.2769    2.0416 C   0  0  0  0  0  0  0  0  0  0  0  0
   -2.3308    1.8753    3.4407 C   0  0  0  0  0  0  0  0  0  0  0  0
   -2.3885    3.3801    3.2543 C   0  0  0  0  0  0  0  0  0  0  0  0
   -1.5397    3.6586    2.0306 C   0  0  0  0  0  0  0  0  0  0  0  0
   -1.7025    2.4393    1.1350 C   0  0  0  0  0  0  0  0  0  0  0  0
   -1.8590    0.7308   -1.2746 H   0  0  0  0  0  0  0  0  0  0  0  0
   -0.4034   -2.6346   -1.6240 H   0  0  0  0  0  0  0  0  0  0  0  0
    1.7984   -3.0912   -2.6008 H   0  0  0  0  0  0  0  0  0  0  0  0
    0.4614    1.5840   -1.7464 H   0  0  0  0  0  0  0  0  0  0  0  0
    4.4099    0.7722   -3.5460 H   0  0  0  0  0  0  0  0  0  0  0  0
    6.5557   -0.4625   -4.5684 H   0  0  0  0  0  0  0  0  0  0  0  0
    5.9958   -3.0801   -4.4534 H   0  0  0  0  0  0  0  0  0  0  0  0
   -4.2786   -0.6167   -0.1362 H   0  0  0  0  0  0  0  0  0  0  0  0
   -4.7438   -1.0222    2.2376 H   0  0  0  0  0  0  0  0  0  0  0  0
   -2.8511   -1.2339    2.6027 H   0  0  0  0  0  0  0  0  0  0  0  0
   -4.3778    1.2585    1.5012 H   0  0  0  0  0  0  0  0  0  0  0  0
   -1.3158    0.5271    2.0928 H   0  0  0  0  0  0  0  0  0  0  0  0
   -1.4529    1.6226    4.0763 H   0  0  0  0  0  0  0  0  0  0  0  0
   -3.2465    1.5035    3.9516 H   0  0  0  0  0  0  0  0  0  0  0  0
   -3.4386    3.6920    3.0592 H   0  0  0  0  0  0  0  0  0  0  0  0
   -2.0031    3.9173    4.1478 H   0  0  0  0  0  0  0  0  0  0  0  0
   -1.8651    4.5893    1.5171 H   0  0  0  0  0  0  0  0  0  0  0  0
   -0.4741    3.7609    2.3340 H   0  0  0  0  0  0  0  0  0  0  0  0
   -2.4666    2.6592    0.3561 H   0  0  0  0  0  0  0  0  0  0  0  0
   -0.7426    2.2059    0.6246 H   0  0  0  0  0  0  0  0  0  0  0  0
  1  2  2  0
  2  3  1  0
  3  4  1  0
  4  5  2  0
  5  6  1  0
  6  7  2  0
  7  8  1  0
  8  9  2  0
  7 10  1  0
 10 11  1  0
 11 12  2  0
 12 13  1  0
 13 14  2  0
  2 15  1  0
 15 16  1  0
 16 17  1  0
 17 18  1  0
 18 19  1  0
 19 20  1  0
 20 21  1  0
 21 22  1  0
  4  9  1  0
 14 10  1  0
 17 15  1  0
 22 18  1  0
  3 23  1  0
  5 24  1  0
  6 25  1  0
  9 26  1  0
 11 27  1  0
 12 28  1  0
 13 29  1  0
 15 30  1  0
 16 31  1  0
 16 32  1  0
 17 33  1  0
 18 34  1  0
 19 35  1  0
 19 36  1  0
 20 37  1  0
 20 38  1  0
 21 39  1  0
 21 40  1  0
 22 41  1  0
 22 42  1  0
M  END
$$$$
