
     RDKit          3D

 48 50  0  0  0  0  0  0  0  0999 V2000
   -0.7321   -0.4981   -0.3230 O   0  0  0  0  0  0  0  0  0  0  0  0
   -1.8062   -0.1605    0.2461 C   0  0  0  0  0  0  0  0  0  0  0  0
   -2.0918    1.2241    0.4958 N   0  0  0  0  0  0  0  0  0  0  0  0
   -1.1285    2.2831    0.3605 C   0  0  0  0  0  0  0  0  0  0  0  0
   -1.5527    3.5428   -0.0833 C   0  0  0  0  0  0  0  0  0  0  0  0
   -0.6389    4.5891   -0.2169 C   0  0  0  0  0  0  0  0  0  0  0  0
    0.7044    4.3944    0.1107 C   0  0  0  0  0  0  0  0  0  0  0  0
    1.1469    3.1508    0.5949 C   0  0  0  0  0  0  0  0  0  0  0  0
    0.2207    2.0971    0.7150 C   0  0  0  0  0  0  0  0  0  0  0  0
    2.5738    2.9586    0.9521 C   0  0  0  0  0  0  0  0  0  0  0  0
    3.4428    3.7217    0.4479 O   0  0  0  0  0  0  0  0  0  0  0  0
    2.9699    1.9416    1.8896 N   0  0  0  0  0  0  0  0  0  0  0  0
    4.3186    1.4623    2.0253 C   0  0  0  0  0  0  0  0  0  0  0  0
    4.6462    0.5808    3.0658 C   0  0  0  0  0  0  0  0  0  0  0  0
    5.9550    0.1081    3.1813 C   0  0  0  0  0  0  0  0  0  0  0  0
    6.9237    0.5118    2.2601 C   0  0  0  0  0  0  0  0  0  0  0  0
    8.5719   -0.0737    2.3909 Cl  0  0  0  0  0  0  0  0  0  0  0  0
    6.5636    1.3860    1.2315 C   0  0  0  0  0  0  0  0  0  0  0  0
    5.2835    1.8347    1.1370 N   0  0  0  0  0  0  0  0  0  0  0  0
   -2.7698   -1.1593    0.6082 N   0  0  0  0  0  0  0  0  0  0  0  0
   -2.5549   -2.5850    0.3364 C   0  0  0  0  0  0  0  0  0  0  0  0
   -3.5842   -3.4391    1.0972 C   0  0  0  0  0  0  0  0  0  0  0  0
   -3.3536   -4.8062    0.8832 O   0  0  0  0  0  0  0  0  0  0  0  0
   -2.6360   -2.8523   -1.1527 C   0  0  0  0  0  0  0  0  0  0  0  0
   -3.7214   -2.3752   -1.9099 C   0  0  0  0  0  0  0  0  0  0  0  0
   -3.7956   -2.6371   -3.2806 C   0  0  0  0  0  0  0  0  0  0  0  0
   -2.7937   -3.3816   -3.9087 C   0  0  0  0  0  0  0  0  0  0  0  0
   -2.8766   -3.6299   -5.2397 F   0  0  0  0  0  0  0  0  0  0  0  0
   -1.7135   -3.8692   -3.1631 C   0  0  0  0  0  0  0  0  0  0  0  0
   -0.4523   -4.8104   -3.9411 Cl  0  0  0  0  0  0  0  0  0  0  0  0
   -1.6369   -3.6082   -1.7902 C   0  0  0  0  0  0  0  0  0  0  0  0
   -3.0836    1.4848    0.6976 H   0  0  0  0  0  0  0  0  0  0  0  0
   -2.5913    3.7083   -0.3412 H   0  0  0  0  0  0  0  0  0  0  0  0
   -0.9728    5.5547   -0.5742 H   0  0  0  0  0  0  0  0  0  0  0  0
    1.3937    5.2227    0.0034 H   0  0  0  0  0  0  0  0  0  0  0  0
    0.5438    1.1347    1.0854 H   0  0  0  0  0  0  0  0  0  0  0  0
    2.2464    1.5541    2.5361 H   0  0  0  0  0  0  0  0  0  0  0  0
    3.8958    0.2650    3.7795 H   0  0  0  0  0  0  0  0  0  0  0  0
    6.2138   -0.5707    3.9839 H   0  0  0  0  0  0  0  0  0  0  0  0
    7.2986    1.7087    0.5061 H   0  0  0  0  0  0  0  0  0  0  0  0
   -3.6483   -0.8498    1.0833 H   0  0  0  0  0  0  0  0  0  0  0  0
   -1.5470   -2.8604    0.7210 H   0  0  0  0  0  0  0  0  0  0  0  0
   -3.5327   -3.2111    2.1865 H   0  0  0  0  0  0  0  0  0  0  0  0
   -4.6119   -3.1937    0.7537 H   0  0  0  0  0  0  0  0  0  0  0  0
   -2.5520   -5.0462    1.4175 H   0  0  0  0  0  0  0  0  0  0  0  0
   -4.5084   -1.7996   -1.4387 H   0  0  0  0  0  0  0  0  0  0  0  0
   -4.6328   -2.2629   -3.8558 H   0  0  0  0  0  0  0  0  0  0  0  0
   -0.7994   -3.9941   -1.2222 H   0  0  0  0  0  0  0  0  0  0  0  0
  1  2  2  0
  2  3  1  0
  3  4  1  0
  4  5  2  0
  5  6  1  0
  6  7  2  0
  7  8  1  0
  8  9  2  0
  8 10  1  0
 10 11  2  0
 10 12  1  0
 12 13  1  0
 13 14  2  0
 14 15  1  0
 15 16  2  0
 16 17  1  0
 16 18  1  0
 18 19  2  0
  2 20  1  0
 20 21  1  0
 21 22  1  0
 22 23  1  0
 21 24  1  0
 24 25  2  0
 25 26  1  0
 26 27  2  0
 27 28  1  0
 27 29  1  0
 29 30  1  0
 29 31  2  0
  4  9  1  0
 13 19  1  0
 24 31  1  0
  3 32  1  0
  5 33  1  0
  6 34  1  0
  7 35  1  0
  9 36  1  0
 12 37  1  0
 14 38  1  0
 15 39  1  0
 18 40  1  0
 20 41  1  0
 21 42  1  0
 22 43  1  0
 22 44  1  0
 23 45  1  0
 25 46  1  0
 26 47  1  0
 31 48  1  0
M  END
$$$$
