
     RDKit          3D

 50 53  0  0  0  0  0  0  0  0999 V2000
   -6.1221    3.4429    1.0307 C   0  0  0  0  0  0  0  0  0  0  0  0
   -5.1746    3.6800    2.1697 C   0  0  0  0  0  0  0  0  0  0  0  0
   -5.6639    4.0706    3.4250 C   0  0  0  0  0  0  0  0  0  0  0  0
   -4.7838    4.2628    4.4933 C   0  0  0  0  0  0  0  0  0  0  0  0
   -3.4147    4.0437    4.3222 C   0  0  0  0  0  0  0  0  0  0  0  0
   -2.9141    3.6182    3.0869 C   0  0  0  0  0  0  0  0  0  0  0  0
   -3.7997    3.4472    2.0063 C   0  0  0  0  0  0  0  0  0  0  0  0
   -1.5309    3.4212    2.9539 O   0  0  0  0  0  0  0  0  0  0  0  0
   -0.9156    2.5188    2.0740 C   0  0  0  0  0  0  0  0  0  0  0  0
   -1.5142    1.3039    1.7049 C   0  0  0  0  0  0  0  0  0  0  0  0
   -0.8548    0.4364    0.8329 C   0  0  0  0  0  0  0  0  0  0  0  0
    0.4154    0.7805    0.3424 C   0  0  0  0  0  0  0  0  0  0  0  0
    0.9846    1.9530    0.7378 N   0  0  0  0  0  0  0  0  0  0  0  0
    0.3590    2.8136    1.5834 C   0  0  0  0  0  0  0  0  0  0  0  0
    1.1443   -0.1139   -0.5837 C   0  0  0  0  0  0  0  0  0  0  0  0
    0.6012   -1.1848   -0.9727 O   0  0  0  0  0  0  0  0  0  0  0  0
    2.4479    0.2523   -1.0719 N   0  0  0  0  0  0  0  0  0  0  0  0
    3.3329   -0.6480   -1.7625 C   0  0  0  0  0  0  0  0  0  0  0  0
    4.2099   -0.1402   -2.7312 C   0  0  0  0  0  0  0  0  0  0  0  0
    5.0843   -0.9911   -3.4103 C   0  0  0  0  0  0  0  0  0  0  0  0
    5.1034   -2.3560   -3.1190 C   0  0  0  0  0  0  0  0  0  0  0  0
    4.2609   -2.8807   -2.1265 C   0  0  0  0  0  0  0  0  0  0  0  0
    3.3766   -2.0190   -1.4514 C   0  0  0  0  0  0  0  0  0  0  0  0
    4.2792   -4.3638   -1.8230 C   0  0  0  0  0  0  0  0  0  0  0  0
    2.9666   -5.0612   -2.2664 C   0  0  0  0  0  0  0  0  0  0  0  0
    2.2715   -5.5764   -0.9953 C   0  0  0  0  0  0  0  0  0  0  0  0
    3.2481   -5.2804    0.0702 C   0  0  0  0  0  0  0  0  0  0  0  0
    3.0883   -5.5961    1.2782 O   0  0  0  0  0  0  0  0  0  0  0  0
    4.3849   -4.5882   -0.3931 N   0  0  0  0  0  0  0  0  0  0  0  0
   -5.6249    3.6438    0.0583 H   0  0  0  0  0  0  0  0  0  0  0  0
   -6.4646    2.3879    1.0498 H   0  0  0  0  0  0  0  0  0  0  0  0
   -7.0054    4.1119    1.1098 H   0  0  0  0  0  0  0  0  0  0  0  0
   -6.7243    4.2331    3.5748 H   0  0  0  0  0  0  0  0  0  0  0  0
   -5.1641    4.5763    5.4572 H   0  0  0  0  0  0  0  0  0  0  0  0
   -2.7406    4.1969    5.1557 H   0  0  0  0  0  0  0  0  0  0  0  0
   -3.4209    3.1535    1.0361 H   0  0  0  0  0  0  0  0  0  0  0  0
   -2.4790    1.0185    2.1028 H   0  0  0  0  0  0  0  0  0  0  0  0
   -1.3300   -0.4954    0.5530 H   0  0  0  0  0  0  0  0  0  0  0  0
    0.8509    3.7342    1.8687 H   0  0  0  0  0  0  0  0  0  0  0  0
    2.7381    1.2524   -0.9992 H   0  0  0  0  0  0  0  0  0  0  0  0
    4.2069    0.9164   -2.9677 H   0  0  0  0  0  0  0  0  0  0  0  0
    5.7461   -0.5921   -4.1678 H   0  0  0  0  0  0  0  0  0  0  0  0
    5.7818   -3.0015   -3.6627 H   0  0  0  0  0  0  0  0  0  0  0  0
    2.7406   -2.4189   -0.6736 H   0  0  0  0  0  0  0  0  0  0  0  0
    5.1453   -4.8538   -2.3200 H   0  0  0  0  0  0  0  0  0  0  0  0
    3.2075   -5.9196   -2.9314 H   0  0  0  0  0  0  0  0  0  0  0  0
    2.2909   -4.3761   -2.8255 H   0  0  0  0  0  0  0  0  0  0  0  0
    1.3278   -5.0229   -0.8068 H   0  0  0  0  0  0  0  0  0  0  0  0
    2.0787   -6.6690   -1.0549 H   0  0  0  0  0  0  0  0  0  0  0  0
    5.1841   -4.2817    0.2059 H   0  0  0  0  0  0  0  0  0  0  0  0
  1  2  1  0
  2  3  2  0
  3  4  1  0
  4  5  2  0
  5  6  1  0
  6  7  2  0
  6  8  1  0
  8  9  1  0
  9 10  2  0
 10 11  1  0
 11 12  2  0
 12 13  1  0
 13 14  2  0
 12 15  1  0
 15 16  2  0
 15 17  1  0
 17 18  1  0
 18 19  2  0
 19 20  1  0
 20 21  2  0
 21 22  1  0
 22 23  2  0
 22 24  1  0
 24 25  1  0
 25 26  1  0
 26 27  1  0
 27 28  2  0
 27 29  1  0
  2  7  1  0
  9 14  1  0
 18 23  1  0
 29 24  1  0
  1 30  1  0
  1 31  1  0
  1 32  1  0
  3 33  1  0
  4 34  1  0
  5 35  1  0
  7 36  1  0
 10 37  1  0
 11 38  1  0
 14 39  1  0
 17 40  1  0
 19 41  1  0
 20 42  1  0
 21 43  1  0
 23 44  1  0
 24 45  1  0
 25 46  1  0
 25 47  1  0
 26 48  1  0
 26 49  1  0
 29 50  1  0
M  END
$$$$
