
     RDKit          3D

 48 50  0  0  0  0  0  0  0  0999 V2000
   -3.5347    2.8922    0.5388 C   0  0  0  0  0  0  0  0  0  0  0  0
   -2.0378    2.8771    0.6273 C   0  0  0  0  0  0  0  0  0  0  0  0
   -1.2620    2.7895   -0.5391 C   0  0  0  0  0  0  0  0  0  0  0  0
    0.1333    2.8007   -0.4586 C   0  0  0  0  0  0  0  0  0  0  0  0
    0.7646    2.8978    0.7868 C   0  0  0  0  0  0  0  0  0  0  0  0
   -0.0045    3.0234    1.9493 C   0  0  0  0  0  0  0  0  0  0  0  0
   -1.4005    3.0163    1.8706 C   0  0  0  0  0  0  0  0  0  0  0  0
    2.5560    2.8571    0.8923 S   0  0  0  0  0  0  0  0  0  0  0  0
    2.6584    1.0543    1.1709 C   0  0  0  0  0  0  0  0  0  0  0  0
    2.3576    0.3062   -0.1001 C   0  0  0  0  0  0  0  0  0  0  0  0
    3.2454    0.2797   -0.9952 O   0  0  0  0  0  0  0  0  0  0  0  0
    1.0806   -0.3294   -0.3367 N   0  0  0  0  0  0  0  0  0  0  0  0
    0.2072   -0.7104    0.7836 C   0  0  0  0  0  0  0  0  0  0  0  0
   -0.9531   -1.6062    0.3219 C   0  0  0  0  0  0  0  0  0  0  0  0
   -0.4757   -2.6943   -0.6770 C   0  0  0  0  0  0  0  0  0  0  0  0
    0.1904   -2.0167   -1.9216 C   0  0  0  0  0  0  0  0  0  0  0  0
    0.6069   -0.5511   -1.7095 C   0  0  0  0  0  0  0  0  0  0  0  0
    0.5678   -3.6419    0.0147 C   0  0  0  0  0  0  0  0  0  0  0  0
    0.5078   -5.0422   -0.6076 C   0  0  0  0  0  0  0  0  0  0  0  0
    1.4295   -5.8937    0.0217 O   0  0  0  0  0  0  0  0  0  0  0  0
   -0.9101   -5.6225   -0.4668 C   0  0  0  0  0  0  0  0  0  0  0  0
   -1.9709   -4.5152   -0.3631 C   0  0  0  0  0  0  0  0  0  0  0  0
   -1.6221   -3.4006   -1.1633 O   0  0  0  0  0  0  0  0  0  0  0  0
   -3.8814    2.2805   -0.3213 H   0  0  0  0  0  0  0  0  0  0  0  0
   -3.9864    2.4718    1.4625 H   0  0  0  0  0  0  0  0  0  0  0  0
   -3.8862    3.9366    0.4062 H   0  0  0  0  0  0  0  0  0  0  0  0
   -1.7365    2.7060   -1.5090 H   0  0  0  0  0  0  0  0  0  0  0  0
    0.7226    2.7164   -1.3628 H   0  0  0  0  0  0  0  0  0  0  0  0
    0.4777    3.1119    2.9145 H   0  0  0  0  0  0  0  0  0  0  0  0
   -1.9835    3.1111    2.7783 H   0  0  0  0  0  0  0  0  0  0  0  0
    1.9945    0.7629    2.0085 H   0  0  0  0  0  0  0  0  0  0  0  0
    3.6954    0.8149    1.4870 H   0  0  0  0  0  0  0  0  0  0  0  0
   -0.2100    0.1981    1.2643 H   0  0  0  0  0  0  0  0  0  0  0  0
    0.8027   -1.2646    1.5411 H   0  0  0  0  0  0  0  0  0  0  0  0
   -1.4271   -2.0663    1.2148 H   0  0  0  0  0  0  0  0  0  0  0  0
   -1.7286   -0.9745   -0.1655 H   0  0  0  0  0  0  0  0  0  0  0  0
   -0.5127   -2.0349   -2.7838 H   0  0  0  0  0  0  0  0  0  0  0  0
    1.0803   -2.5918   -2.2589 H   0  0  0  0  0  0  0  0  0  0  0  0
   -0.2693    0.1082   -1.8925 H   0  0  0  0  0  0  0  0  0  0  0  0
    1.3751   -0.2767   -2.4637 H   0  0  0  0  0  0  0  0  0  0  0  0
    1.5988   -3.2313   -0.0642 H   0  0  0  0  0  0  0  0  0  0  0  0
    0.3476   -3.7382    1.1018 H   0  0  0  0  0  0  0  0  0  0  0  0
    0.7508   -4.9668   -1.6937 H   0  0  0  0  0  0  0  0  0  0  0  0
    2.3294   -5.6364   -0.3101 H   0  0  0  0  0  0  0  0  0  0  0  0
   -1.1275   -6.2655   -1.3477 H   0  0  0  0  0  0  0  0  0  0  0  0
   -0.9795   -6.2613    0.4411 H   0  0  0  0  0  0  0  0  0  0  0  0
   -2.1168   -4.2159    0.6982 H   0  0  0  0  0  0  0  0  0  0  0  0
   -2.9447   -4.9151   -0.7160 H   0  0  0  0  0  0  0  0  0  0  0  0
  1  2  1  0
  2  3  2  0
  3  4  1  0
  4  5  2  0
  5  6  1  0
  6  7  2  0
  5  8  1  0
  8  9  1  0
  9 10  1  0
 10 11  2  0
 10 12  1  0
 12 13  1  0
 13 14  1  0
 14 15  1  0
 15 16  1  0
 16 17  1  0
 15 18  1  0
 18 19  1  0
 19 20  1  0
 19 21  1  0
 21 22  1  0
 22 23  1  0
  2  7  1  0
 17 12  1  0
 23 15  1  0
  1 24  1  0
  1 25  1  0
  1 26  1  0
  3 27  1  0
  4 28  1  0
  6 29  1  0
  7 30  1  0
  9 31  1  0
  9 32  1  0
 13 33  1  0
 13 34  1  0
 14 35  1  0
 14 36  1  0
 16 37  1  0
 16 38  1  0
 17 39  1  0
 17 40  1  0
 18 41  1  0
 18 42  1  0
 19 43  1  0
 20 44  1  0
 21 45  1  0
 21 46  1  0
 22 47  1  0
 22 48  1  0
M  END
$$$$
