
     RDKit          3D

 47 49  0  0  0  0  0  0  0  0999 V2000
    2.8975   -1.3434    1.7819 C   0  0  0  0  0  0  0  0  0  0  0  0
    3.4391   -1.6303    0.5038 O   0  0  0  0  0  0  0  0  0  0  0  0
    3.6456   -0.4678   -0.2971 C   0  0  0  0  0  0  0  0  0  0  0  0
    4.0185   -0.9191   -1.6950 C   0  0  0  0  0  0  0  0  0  0  0  0
    5.5352   -1.0241   -1.6631 C   0  0  0  0  0  0  0  0  0  0  0  0
    6.0255   -0.4173   -0.4920 O   0  0  0  0  0  0  0  0  0  0  0  0
    4.9431    0.2494    0.1058 C   0  0  0  0  0  0  0  0  0  0  0  0
    2.4260    0.4543   -0.3377 C   0  0  0  0  0  0  0  0  0  0  0  0
    2.4385    1.7331    0.0990 N   0  0  0  0  0  0  0  0  0  0  0  0
    1.2031    2.2026   -0.0079 N   0  0  0  0  0  0  0  0  0  0  0  0
    0.4543    1.2009   -0.5023 C   0  0  0  0  0  0  0  0  0  0  0  0
   -1.0222    1.2706   -0.7355 C   0  0  0  0  0  0  0  0  0  0  0  0
   -1.5570   -0.0360   -1.1635 N   0  0  0  0  0  0  0  0  0  0  0  0
   -0.6873   -0.9872   -1.8807 C   0  0  0  0  0  0  0  0  0  0  0  0
    0.6330   -1.1928   -1.1294 C   0  0  0  0  0  0  0  0  0  0  0  0
    1.1840    0.1013   -0.7367 N   0  0  0  0  0  0  0  0  0  0  0  0
   -2.9826   -0.2477   -1.1390 C   0  0  0  0  0  0  0  0  0  0  0  0
   -3.7366    0.6247   -0.6276 O   0  0  0  0  0  0  0  0  0  0  0  0
   -3.5235   -1.4235   -1.6852 O   0  0  0  0  0  0  0  0  0  0  0  0
   -4.9130   -1.7794   -1.7379 C   0  0  0  0  0  0  0  0  0  0  0  0
   -5.7050   -0.7534   -2.5708 C   0  0  0  0  0  0  0  0  0  0  0  0
   -5.0032   -3.1508   -2.4245 C   0  0  0  0  0  0  0  0  0  0  0  0
   -5.4982   -1.8951   -0.3174 C   0  0  0  0  0  0  0  0  0  0  0  0
    3.2428   -0.3795    2.2120 H   0  0  0  0  0  0  0  0  0  0  0  0
    1.7894   -1.3399    1.7318 H   0  0  0  0  0  0  0  0  0  0  0  0
    3.1991   -2.1493    2.4816 H   0  0  0  0  0  0  0  0  0  0  0  0
    3.7188   -0.1668   -2.4602 H   0  0  0  0  0  0  0  0  0  0  0  0
    3.5718   -1.9019   -1.9577 H   0  0  0  0  0  0  0  0  0  0  0  0
    5.9798   -0.5284   -2.5530 H   0  0  0  0  0  0  0  0  0  0  0  0
    5.8421   -2.0922   -1.6662 H   0  0  0  0  0  0  0  0  0  0  0  0
    4.9496    1.3027   -0.2540 H   0  0  0  0  0  0  0  0  0  0  0  0
    5.0953    0.2708    1.2030 H   0  0  0  0  0  0  0  0  0  0  0  0
   -1.2366    2.0322   -1.5148 H   0  0  0  0  0  0  0  0  0  0  0  0
   -1.5025    1.5821    0.2169 H   0  0  0  0  0  0  0  0  0  0  0  0
   -1.1750   -1.9784   -1.9961 H   0  0  0  0  0  0  0  0  0  0  0  0
   -0.4761   -0.5872   -2.8961 H   0  0  0  0  0  0  0  0  0  0  0  0
    1.3363   -1.7347   -1.7893 H   0  0  0  0  0  0  0  0  0  0  0  0
    0.4472   -1.8043   -0.2215 H   0  0  0  0  0  0  0  0  0  0  0  0
   -6.7515   -1.0967   -2.7210 H   0  0  0  0  0  0  0  0  0  0  0  0
   -5.2297   -0.6191   -3.5660 H   0  0  0  0  0  0  0  0  0  0  0  0
   -5.7446    0.2337   -2.0671 H   0  0  0  0  0  0  0  0  0  0  0  0
   -6.0588   -3.4911   -2.5000 H   0  0  0  0  0  0  0  0  0  0  0  0
   -4.4277   -3.9080   -1.8494 H   0  0  0  0  0  0  0  0  0  0  0  0
   -4.5744   -3.0979   -3.4485 H   0  0  0  0  0  0  0  0  0  0  0  0
   -6.5341   -2.2964   -0.3533 H   0  0  0  0  0  0  0  0  0  0  0  0
   -4.8748   -2.5775    0.2992 H   0  0  0  0  0  0  0  0  0  0  0  0
   -5.5378   -0.9081    0.1864 H   0  0  0  0  0  0  0  0  0  0  0  0
  1  2  1  0
  2  3  1  0
  3  4  1  0
  4  5  1  0
  5  6  1  0
  6  7  1  0
  3  8  1  0
  8  9  2  0
  9 10  1  0
 10 11  2  0
 11 12  1  0
 12 13  1  0
 13 14  1  0
 14 15  1  0
 15 16  1  0
 13 17  1  0
 17 18  2  0
 17 19  1  0
 19 20  1  0
 20 21  1  0
 20 22  1  0
 20 23  1  0
  7  3  1  0
 16  8  1  0
 16 11  1  0
  1 24  1  0
  1 25  1  0
  1 26  1  0
  4 27  1  0
  4 28  1  0
  5 29  1  0
  5 30  1  0
  7 31  1  0
  7 32  1  0
 12 33  1  0
 12 34  1  0
 14 35  1  0
 14 36  1  0
 15 37  1  0
 15 38  1  0
 21 39  1  0
 21 40  1  0
 21 41  1  0
 22 42  1  0
 22 43  1  0
 22 44  1  0
 23 45  1  0
 23 46  1  0
 23 47  1  0
M  END
$$$$
