
     RDKit          3D

 42 45  0  0  0  0  0  0  0  0999 V2000
    1.2427   -0.6356   -2.0242 O   0  0  0  0  0  0  0  0  0  0  0  0
    0.7489    0.2431   -1.2673 C   0  0  0  0  0  0  0  0  0  0  0  0
    1.5337    1.4599   -0.9833 C   0  0  0  0  0  0  0  0  0  0  0  0
    1.0538    2.7536   -1.0061 C   0  0  0  0  0  0  0  0  0  0  0  0
    2.0882    3.5949   -0.8403 N   0  0  0  0  0  0  0  0  0  0  0  0
    3.2104    2.9061   -0.7121 N   0  0  0  0  0  0  0  0  0  0  0  0
    2.9051    1.5954   -0.7957 C   0  0  0  0  0  0  0  0  0  0  0  0
    3.9118    0.5311   -0.6296 C   0  0  0  0  0  0  0  0  0  0  0  0
    5.2881    0.7116   -0.7333 C   0  0  0  0  0  0  0  0  0  0  0  0
    6.0247   -0.4469   -0.4581 C   0  0  0  0  0  0  0  0  0  0  0  0
    5.2290   -1.5315   -0.1233 C   0  0  0  0  0  0  0  0  0  0  0  0
    5.8029   -3.1309    0.2957 Cl  0  0  0  0  0  0  0  0  0  0  0  0
    3.6174   -1.0632   -0.1629 S   0  0  0  0  0  0  0  0  0  0  0  0
   -0.5790    0.0617   -0.7333 N   0  0  0  0  0  0  0  0  0  0  0  0
   -1.0100    0.7579    0.4869 C   0  0  0  0  0  0  0  0  0  0  0  0
   -1.8798   -0.1691    1.3375 C   0  0  0  0  0  0  0  0  0  0  0  0
   -2.9784   -0.7133    0.5167 N   0  0  0  0  0  0  0  0  0  0  0  0
   -3.9858   -1.4393    1.3196 C   0  0  0  0  0  0  0  0  0  0  0  0
   -3.4295   -2.7023    2.0114 C   0  0  0  0  0  0  0  0  0  0  0  0
   -4.5044   -3.6625    2.5011 C   0  0  0  0  0  0  0  0  0  0  0  0
   -3.6578   -4.0239    1.2924 C   0  0  0  0  0  0  0  0  0  0  0  0
   -2.4511   -1.5261   -0.5954 C   0  0  0  0  0  0  0  0  0  0  0  0
   -1.5967   -0.6525   -1.5160 C   0  0  0  0  0  0  0  0  0  0  0  0
    0.0311    3.0646   -1.1743 H   0  0  0  0  0  0  0  0  0  0  0  0
    2.0344    4.6370   -0.8251 H   0  0  0  0  0  0  0  0  0  0  0  0
    5.7500    1.6541   -0.9971 H   0  0  0  0  0  0  0  0  0  0  0  0
    7.1049   -0.4876   -0.4946 H   0  0  0  0  0  0  0  0  0  0  0  0
   -1.5931    1.6615    0.2080 H   0  0  0  0  0  0  0  0  0  0  0  0
   -0.1346    1.0715    1.0959 H   0  0  0  0  0  0  0  0  0  0  0  0
   -2.2887    0.4158    2.1908 H   0  0  0  0  0  0  0  0  0  0  0  0
   -1.2414   -0.9851    1.7433 H   0  0  0  0  0  0  0  0  0  0  0  0
   -4.8538   -1.6854    0.6686 H   0  0  0  0  0  0  0  0  0  0  0  0
   -4.3841   -0.7618    2.1054 H   0  0  0  0  0  0  0  0  0  0  0  0
   -2.5554   -2.6428    2.6929 H   0  0  0  0  0  0  0  0  0  0  0  0
   -4.2384   -4.2302    3.4176 H   0  0  0  0  0  0  0  0  0  0  0  0
   -5.5549   -3.4017    2.2492 H   0  0  0  0  0  0  0  0  0  0  0  0
   -4.2002   -3.9671    0.3249 H   0  0  0  0  0  0  0  0  0  0  0  0
   -2.8828   -4.7928    1.4951 H   0  0  0  0  0  0  0  0  0  0  0  0
   -1.8290   -2.3665   -0.2135 H   0  0  0  0  0  0  0  0  0  0  0  0
   -3.2891   -1.9501   -1.1920 H   0  0  0  0  0  0  0  0  0  0  0  0
   -1.1323   -1.3002   -2.2900 H   0  0  0  0  0  0  0  0  0  0  0  0
   -2.2454    0.0890   -2.0310 H   0  0  0  0  0  0  0  0  0  0  0  0
  1  2  2  0
  2  3  1  0
  3  4  2  0
  4  5  1  0
  5  6  1  0
  6  7  2  0
  7  8  1  0
  8  9  2  0
  9 10  1  0
 10 11  2  0
 11 12  1  0
 11 13  1  0
  2 14  1  0
 14 15  1  0
 15 16  1  0
 16 17  1  0
 17 18  1  0
 18 19  1  0
 19 20  1  0
 20 21  1  0
 17 22  1  0
 22 23  1  0
  7  3  1  0
 13  8  1  0
 23 14  1  0
 21 19  1  0
  4 24  1  0
  5 25  1  0
  9 26  1  0
 10 27  1  0
 15 28  1  0
 15 29  1  0
 16 30  1  0
 16 31  1  0
 18 32  1  0
 18 33  1  0
 19 34  1  0
 20 35  1  0
 20 36  1  0
 21 37  1  0
 21 38  1  0
 22 39  1  0
 22 40  1  0
 23 41  1  0
 23 42  1  0
M  END
$$$$
