
     RDKit          3D

 47 49  0  0  0  0  0  0  0  0999 V2000
   -2.5820   -0.8392    4.6711 C   0  0  0  0  0  0  0  0  0  0  0  0
   -1.5923   -0.9660    3.6658 O   0  0  0  0  0  0  0  0  0  0  0  0
   -0.6253    0.0884    3.6291 C   0  0  0  0  0  0  0  0  0  0  0  0
    0.1938    0.1814    4.9145 C   0  0  0  0  0  0  0  0  0  0  0  0
   -0.4085    1.3696    5.6565 C   0  0  0  0  0  0  0  0  0  0  0  0
   -1.3937    1.9857    4.8574 O   0  0  0  0  0  0  0  0  0  0  0  0
   -1.2369    1.4925    3.5496 C   0  0  0  0  0  0  0  0  0  0  0  0
    0.2459   -0.1695    2.4096 C   0  0  0  0  0  0  0  0  0  0  0  0
    1.5535   -0.5108    2.4580 N   0  0  0  0  0  0  0  0  0  0  0  0
    1.9666   -0.6875    1.2097 N   0  0  0  0  0  0  0  0  0  0  0  0
    0.9019   -0.4635    0.4191 C   0  0  0  0  0  0  0  0  0  0  0  0
    0.9078   -0.5431   -1.0749 C   0  0  0  0  0  0  0  0  0  0  0  0
   -0.4154   -0.2039   -1.6303 N   0  0  0  0  0  0  0  0  0  0  0  0
   -1.6330   -0.4352   -0.8280 C   0  0  0  0  0  0  0  0  0  0  0  0
   -1.4921    0.1821    0.5685 C   0  0  0  0  0  0  0  0  0  0  0  0
   -0.1913   -0.1642    1.1324 N   0  0  0  0  0  0  0  0  0  0  0  0
   -0.5162    0.0712   -3.0413 C   0  0  0  0  0  0  0  0  0  0  0  0
   -1.6454    0.2630   -3.5689 O   0  0  0  0  0  0  0  0  0  0  0  0
    0.6521    0.1236   -3.8199 O   0  0  0  0  0  0  0  0  0  0  0  0
    0.7268    0.3829   -5.2296 C   0  0  0  0  0  0  0  0  0  0  0  0
   -0.0310   -0.6997   -6.0217 C   0  0  0  0  0  0  0  0  0  0  0  0
    2.2117    0.3353   -5.6207 C   0  0  0  0  0  0  0  0  0  0  0  0
    0.1719    1.7830   -5.5542 C   0  0  0  0  0  0  0  0  0  0  0  0
   -3.2217    0.0534    4.5182 H   0  0  0  0  0  0  0  0  0  0  0  0
   -2.1485   -0.8485    5.6910 H   0  0  0  0  0  0  0  0  0  0  0  0
   -3.2518   -1.7206    4.6061 H   0  0  0  0  0  0  0  0  0  0  0  0
    0.1473   -0.7536    5.5136 H   0  0  0  0  0  0  0  0  0  0  0  0
    1.2653    0.4095    4.7252 H   0  0  0  0  0  0  0  0  0  0  0  0
    0.3789    2.1146    5.9045 H   0  0  0  0  0  0  0  0  0  0  0  0
   -0.8725    1.0320    6.6074 H   0  0  0  0  0  0  0  0  0  0  0  0
   -0.5692    2.1903    2.9944 H   0  0  0  0  0  0  0  0  0  0  0  0
   -2.2172    1.4866    3.0296 H   0  0  0  0  0  0  0  0  0  0  0  0
    1.6707    0.1723   -1.4504 H   0  0  0  0  0  0  0  0  0  0  0  0
    1.1891   -1.5705   -1.3889 H   0  0  0  0  0  0  0  0  0  0  0  0
   -1.7980   -1.5303   -0.7320 H   0  0  0  0  0  0  0  0  0  0  0  0
   -2.5304    0.0062   -1.3118 H   0  0  0  0  0  0  0  0  0  0  0  0
   -1.5730    1.2878    0.4938 H   0  0  0  0  0  0  0  0  0  0  0  0
   -2.3084   -0.1986    1.2177 H   0  0  0  0  0  0  0  0  0  0  0  0
    0.3221   -1.7101   -5.7234 H   0  0  0  0  0  0  0  0  0  0  0  0
   -1.1237   -0.6446   -5.8407 H   0  0  0  0  0  0  0  0  0  0  0  0
    0.1359   -0.5738   -7.1134 H   0  0  0  0  0  0  0  0  0  0  0  0
    2.7841    1.1009   -5.0538 H   0  0  0  0  0  0  0  0  0  0  0  0
    2.3448    0.5271   -6.7077 H   0  0  0  0  0  0  0  0  0  0  0  0
    2.6410   -0.6618   -5.3822 H   0  0  0  0  0  0  0  0  0  0  0  0
    0.6711    2.5488   -4.9227 H   0  0  0  0  0  0  0  0  0  0  0  0
   -0.9205    1.8385   -5.3716 H   0  0  0  0  0  0  0  0  0  0  0  0
    0.3477    2.0347   -6.6225 H   0  0  0  0  0  0  0  0  0  0  0  0
  1  2  1  0
  2  3  1  0
  3  4  1  0
  4  5  1  0
  5  6  1  0
  6  7  1  0
  3  8  1  0
  8  9  2  0
  9 10  1  0
 10 11  2  0
 11 12  1  0
 12 13  1  0
 13 14  1  0
 14 15  1  0
 15 16  1  0
 13 17  1  0
 17 18  2  0
 17 19  1  0
 19 20  1  0
 20 21  1  0
 20 22  1  0
 20 23  1  0
  7  3  1  0
 16  8  1  0
 16 11  1  0
  1 24  1  0
  1 25  1  0
  1 26  1  0
  4 27  1  0
  4 28  1  0
  5 29  1  0
  5 30  1  0
  7 31  1  0
  7 32  1  0
 12 33  1  0
 12 34  1  0
 14 35  1  0
 14 36  1  0
 15 37  1  0
 15 38  1  0
 21 39  1  0
 21 40  1  0
 21 41  1  0
 22 42  1  0
 22 43  1  0
 22 44  1  0
 23 45  1  0
 23 46  1  0
 23 47  1  0
M  END
$$$$
