
     RDKit          3D

 51 56  0  0  0  0  0  0  0  0999 V2000
   -1.8985   -0.9733    4.6120 O   0  0  0  0  0  0  0  0  0  0  0  0
   -0.9019   -0.4043    4.0927 C   0  0  0  0  0  0  0  0  0  0  0  0
   -1.0562    0.7127    3.3178 N   0  0  0  0  0  0  0  0  0  0  0  0
    0.0266    1.3347    2.7355 C   0  0  0  0  0  0  0  0  0  0  0  0
   -0.1662    2.5568    1.8824 C   0  0  0  0  0  0  0  0  0  0  0  0
   -0.2913    2.2534    0.4416 N   0  0  0  0  0  0  0  0  0  0  0  0
   -1.5556    1.6275    0.0061 C   0  0  0  0  0  0  0  0  0  0  0  0
   -1.4761    0.0965   -0.0519 C   0  0  0  0  0  0  0  0  0  0  0  0
   -0.2799   -0.3901   -0.8763 C   0  0  0  0  0  0  0  0  0  0  0  0
    1.0233    0.2610   -0.3852 C   0  0  0  0  0  0  0  0  0  0  0  0
    0.9334    1.7920   -0.2449 C   0  0  0  0  0  0  0  0  0  0  0  0
   -0.5157   -0.2142   -2.3580 C   0  0  0  0  0  0  0  0  0  0  0  0
   -0.2782    0.9435   -3.0328 N   0  0  0  0  0  0  0  0  0  0  0  0
   -0.6882    0.6543   -4.2799 C   0  0  0  0  0  0  0  0  0  0  0  0
   -0.6761    1.4867   -5.3965 C   0  0  0  0  0  0  0  0  0  0  0  0
   -1.1719    0.9638   -6.6066 C   0  0  0  0  0  0  0  0  0  0  0  0
   -1.6635   -0.3611   -6.6662 C   0  0  0  0  0  0  0  0  0  0  0  0
   -1.6628   -1.1736   -5.5164 C   0  0  0  0  0  0  0  0  0  0  0  0
   -1.1616   -0.6215   -4.3398 C   0  0  0  0  0  0  0  0  0  0  0  0
   -1.0653   -1.1853   -3.1304 N   0  0  0  0  0  0  0  0  0  0  0  0
    1.2918    0.8566    2.9446 N   0  0  0  0  0  0  0  0  0  0  0  0
    1.4379   -0.2467    3.7124 C   0  0  0  0  0  0  0  0  0  0  0  0
    2.5604   -0.9428    4.0683 C   0  0  0  0  0  0  0  0  0  0  0  0
    3.9101   -0.7681    3.7795 C   0  0  0  0  0  0  0  0  0  0  0  0
    4.8139   -1.6995    4.3236 C   0  0  0  0  0  0  0  0  0  0  0  0
    4.3500   -2.7656    5.1295 C   0  0  0  0  0  0  0  0  0  0  0  0
    2.9759   -2.9147    5.4010 C   0  0  0  0  0  0  0  0  0  0  0  0
    2.0984   -1.9823    4.8526 C   0  0  0  0  0  0  0  0  0  0  0  0
    0.7828   -1.9412    4.9788 O   0  0  0  0  0  0  0  0  0  0  0  0
    0.3810   -0.8915    4.2880 C   0  0  0  0  0  0  0  0  0  0  0  0
   -2.0177    1.0918    3.1603 H   0  0  0  0  0  0  0  0  0  0  0  0
   -1.0644    3.1145    2.2256 H   0  0  0  0  0  0  0  0  0  0  0  0
    0.6893    3.2486    2.0413 H   0  0  0  0  0  0  0  0  0  0  0  0
   -1.8142    2.0162   -1.0018 H   0  0  0  0  0  0  0  0  0  0  0  0
   -2.3918    1.9224    0.6768 H   0  0  0  0  0  0  0  0  0  0  0  0
   -2.4203   -0.3031   -0.4828 H   0  0  0  0  0  0  0  0  0  0  0  0
   -1.3965   -0.3150    0.9737 H   0  0  0  0  0  0  0  0  0  0  0  0
   -0.1795   -1.4838   -0.6957 H   0  0  0  0  0  0  0  0  0  0  0  0
    1.8547    0.0059   -1.0780 H   0  0  0  0  0  0  0  0  0  0  0  0
    1.2874   -0.1803    0.5970 H   0  0  0  0  0  0  0  0  0  0  0  0
    1.8409    2.1552    0.2852 H   0  0  0  0  0  0  0  0  0  0  0  0
    0.9688    2.2591   -1.2499 H   0  0  0  0  0  0  0  0  0  0  0  0
   -0.3003    2.4999   -5.3369 H   0  0  0  0  0  0  0  0  0  0  0  0
   -1.1783    1.5805   -7.4959 H   0  0  0  0  0  0  0  0  0  0  0  0
   -2.0437   -0.7525   -7.6007 H   0  0  0  0  0  0  0  0  0  0  0  0
   -2.0382   -2.1882   -5.5464 H   0  0  0  0  0  0  0  0  0  0  0  0
   -1.3581   -2.1467   -2.8457 H   0  0  0  0  0  0  0  0  0  0  0  0
    4.2525    0.0511    3.1605 H   0  0  0  0  0  0  0  0  0  0  0  0
    5.8726   -1.5992    4.1233 H   0  0  0  0  0  0  0  0  0  0  0  0
    5.0572   -3.4740    5.5407 H   0  0  0  0  0  0  0  0  0  0  0  0
    2.6132   -3.7283    6.0153 H   0  0  0  0  0  0  0  0  0  0  0  0
  1  2  2  0
  2  3  1  0
  3  4  1  0
  4  5  1  0
  5  6  1  0
  6  7  1  0
  7  8  1  0
  8  9  1  0
  9 10  1  0
 10 11  1  0
  9 12  1  0
 12 13  2  0
 13 14  1  0
 14 15  2  0
 15 16  1  0
 16 17  2  0
 17 18  1  0
 18 19  2  0
 19 20  1  0
  4 21  2  0
 21 22  1  0
 22 23  1  0
 23 24  2  0
 24 25  1  0
 25 26  2  0
 26 27  1  0
 27 28  2  0
 28 29  1  0
 29 30  1  0
 30  2  1  0
 11  6  1  0
 20 12  1  0
 14 19  1  0
 22 30  2  0
 28 23  1  0
  3 31  1  0
  5 32  1  0
  5 33  1  0
  7 34  1  0
  7 35  1  0
  8 36  1  0
  8 37  1  0
  9 38  1  0
 10 39  1  0
 10 40  1  0
 11 41  1  0
 11 42  1  0
 15 43  1  0
 16 44  1  0
 17 45  1  0
 18 46  1  0
 20 47  1  0
 24 48  1  0
 25 49  1  0
 26 50  1  0
 27 51  1  0
M  END
$$$$
