
     RDKit          3D

 48 51  0  0  0  0  0  0  0  0999 V2000
   -5.2152    1.6444   -5.8253 C   0  0  0  0  0  0  0  0  0  0  0  0
   -5.1052    0.3366   -5.2765 O   0  0  0  0  0  0  0  0  0  0  0  0
   -4.1406   -0.0048   -4.3241 C   0  0  0  0  0  0  0  0  0  0  0  0
   -4.0981   -1.3257   -3.8289 C   0  0  0  0  0  0  0  0  0  0  0  0
   -3.1354   -1.6856   -2.8718 C   0  0  0  0  0  0  0  0  0  0  0  0
   -2.2401   -0.7113   -2.4378 C   0  0  0  0  0  0  0  0  0  0  0  0
   -1.2611   -0.9041   -1.5191 N   0  0  0  0  0  0  0  0  0  0  0  0
   -0.5591    0.2401   -1.3177 C   0  0  0  0  0  0  0  0  0  0  0  0
    0.5071    0.3189   -0.3621 N   0  0  0  0  0  0  0  0  0  0  0  0
    1.3880    1.4453   -0.2203 C   0  0  0  0  0  0  0  0  0  0  0  0
    1.5411    2.2520   -1.1774 O   0  0  0  0  0  0  0  0  0  0  0  0
    2.1526    1.6256    0.9860 N   0  0  0  0  0  0  0  0  0  0  0  0
    3.4525    2.3101    0.9245 C   0  0  0  0  0  0  0  0  0  0  0  0
    4.2449    2.1249    2.2276 C   0  0  0  0  0  0  0  0  0  0  0  0
    4.1391    0.6701    2.7045 C   0  0  0  0  0  0  0  0  0  0  0  0
    2.6665    0.2274    2.9630 C   0  0  0  0  0  0  0  0  0  0  0  0
    1.6453    1.1698    2.2863 C   0  0  0  0  0  0  0  0  0  0  0  0
    2.4482   -1.1579    2.5152 N   0  0  0  0  0  0  0  0  0  0  0  0
    1.3078   -1.9648    2.8773 C   0  0  0  0  0  0  0  0  0  0  0  0
    0.3709   -1.5501    3.8468 C   0  0  0  0  0  0  0  0  0  0  0  0
   -0.7248   -2.3598    4.1627 C   0  0  0  0  0  0  0  0  0  0  0  0
   -0.8985   -3.5881    3.5220 C   0  0  0  0  0  0  0  0  0  0  0  0
    0.0243   -4.0110    2.5637 C   0  0  0  0  0  0  0  0  0  0  0  0
    1.1214   -3.2059    2.2439 C   0  0  0  0  0  0  0  0  0  0  0  0
   -1.1406    1.5361   -2.2572 S   0  0  0  0  0  0  0  0  0  0  0  0
   -2.3192    0.5674   -2.9495 C   0  0  0  0  0  0  0  0  0  0  0  0
   -3.2449    0.9257   -3.8722 N   0  0  0  0  0  0  0  0  0  0  0  0
   -4.2738    1.9182   -6.3472 H   0  0  0  0  0  0  0  0  0  0  0  0
   -6.0498    1.6642   -6.5557 H   0  0  0  0  0  0  0  0  0  0  0  0
   -5.4252    2.3788   -5.0190 H   0  0  0  0  0  0  0  0  0  0  0  0
   -4.8063   -2.0630   -4.1846 H   0  0  0  0  0  0  0  0  0  0  0  0
   -3.0924   -2.6947   -2.4825 H   0  0  0  0  0  0  0  0  0  0  0  0
    0.6689   -0.5168    0.2426 H   0  0  0  0  0  0  0  0  0  0  0  0
    3.2981    3.3930    0.7295 H   0  0  0  0  0  0  0  0  0  0  0  0
    4.0492    1.8839    0.0881 H   0  0  0  0  0  0  0  0  0  0  0  0
    3.8491    2.8057    3.0127 H   0  0  0  0  0  0  0  0  0  0  0  0
    5.3110    2.3874    2.0552 H   0  0  0  0  0  0  0  0  0  0  0  0
    4.7304    0.5510    3.6384 H   0  0  0  0  0  0  0  0  0  0  0  0
    4.6254    0.0320    1.9353 H   0  0  0  0  0  0  0  0  0  0  0  0
    2.5095    0.2771    4.0622 H   0  0  0  0  0  0  0  0  0  0  0  0
    0.6484    0.6922    2.1954 H   0  0  0  0  0  0  0  0  0  0  0  0
    1.4911    2.0598    2.9345 H   0  0  0  0  0  0  0  0  0  0  0  0
    3.1368   -1.5852    1.8547 H   0  0  0  0  0  0  0  0  0  0  0  0
    0.4709   -0.6059    4.3617 H   0  0  0  0  0  0  0  0  0  0  0  0
   -1.4410   -2.0334    4.9058 H   0  0  0  0  0  0  0  0  0  0  0  0
   -1.7477   -4.2122    3.7686 H   0  0  0  0  0  0  0  0  0  0  0  0
   -0.1105   -4.9634    2.0672 H   0  0  0  0  0  0  0  0  0  0  0  0
    1.8252   -3.5483    1.4958 H   0  0  0  0  0  0  0  0  0  0  0  0
  1  2  1  0
  2  3  1  0
  3  4  2  0
  4  5  1  0
  5  6  2  0
  6  7  1  0
  7  8  2  0
  8  9  1  0
  9 10  1  0
 10 11  2  0
 10 12  1  0
 12 13  1  0
 13 14  1  0
 14 15  1  0
 15 16  1  0
 16 17  1  0
 16 18  1  0
 18 19  1  0
 19 20  2  0
 20 21  1  0
 21 22  2  0
 22 23  1  0
 23 24  2  0
  8 25  1  0
 25 26  1  0
 26 27  2  0
  3 27  1  0
  6 26  1  0
 17 12  1  0
 19 24  1  0
  1 28  1  0
  1 29  1  0
  1 30  1  0
  4 31  1  0
  5 32  1  0
  9 33  1  0
 13 34  1  0
 13 35  1  0
 14 36  1  0
 14 37  1  0
 15 38  1  0
 15 39  1  0
 16 40  1  0
 17 41  1  0
 17 42  1  0
 18 43  1  0
 20 44  1  0
 21 45  1  0
 22 46  1  0
 23 47  1  0
 24 48  1  0
M  END
$$$$
