
     RDKit          3D

 43 45  0  0  0  0  0  0  0  0999 V2000
   -3.5773   -4.8585   -0.4476 C   0  0  0  0  0  0  0  0  0  0  0  0
   -2.4672   -3.9359   -0.2356 N   0  0  0  0  0  0  0  0  0  0  0  0
   -2.5935   -2.7874    0.4109 N   0  0  0  0  0  0  0  0  0  0  0  0
   -1.3869   -2.1895    0.4318 C   0  0  0  0  0  0  0  0  0  0  0  0
   -0.4657   -2.9856   -0.2261 C   0  0  0  0  0  0  0  0  0  0  0  0
    0.9796   -2.7181   -0.3664 C   0  0  0  0  0  0  0  0  0  0  0  0
    1.7800   -3.6786   -0.5255 O   0  0  0  0  0  0  0  0  0  0  0  0
    1.4906   -1.3774   -0.2891 N   0  0  0  0  0  0  0  0  0  0  0  0
    2.7457   -1.1266    0.4309 C   0  0  0  0  0  0  0  0  0  0  0  0
    2.7092    0.2206    1.1810 C   0  0  0  0  0  0  0  0  0  0  0  0
    1.7624    1.2676    0.5528 C   0  0  0  0  0  0  0  0  0  0  0  0
    1.5969    1.0153   -0.9554 C   0  0  0  0  0  0  0  0  0  0  0  0
    0.9488   -0.3541   -1.1973 C   0  0  0  0  0  0  0  0  0  0  0  0
    0.4934    1.1988    1.2128 O   0  0  0  0  0  0  0  0  0  0  0  0
   -0.5334    2.1530    1.1264 C   0  0  0  0  0  0  0  0  0  0  0  0
   -1.7691    1.8447    1.7096 C   0  0  0  0  0  0  0  0  0  0  0  0
   -2.8294    2.7538    1.6518 C   0  0  0  0  0  0  0  0  0  0  0  0
   -2.6615    3.9856    1.0126 C   0  0  0  0  0  0  0  0  0  0  0  0
   -3.9919    5.1265    0.9403 Cl  0  0  0  0  0  0  0  0  0  0  0  0
   -1.4304    4.3076    0.4336 C   0  0  0  0  0  0  0  0  0  0  0  0
   -0.3681    3.3996    0.4897 C   0  0  0  0  0  0  0  0  0  0  0  0
   -1.1882   -4.0947   -0.6428 C   0  0  0  0  0  0  0  0  0  0  0  0
   -0.6579   -5.2890   -1.3870 C   0  0  0  0  0  0  0  0  0  0  0  0
    0.0839   -4.8748   -2.4780 F   0  0  0  0  0  0  0  0  0  0  0  0
    0.1376   -6.0449   -0.5465 F   0  0  0  0  0  0  0  0  0  0  0  0
   -4.4930   -4.4794    0.0541 H   0  0  0  0  0  0  0  0  0  0  0  0
   -3.3267   -5.8535   -0.0233 H   0  0  0  0  0  0  0  0  0  0  0  0
   -3.7816   -4.9564   -1.5344 H   0  0  0  0  0  0  0  0  0  0  0  0
   -1.1873   -1.2465    0.9223 H   0  0  0  0  0  0  0  0  0  0  0  0
    2.9480   -1.9396    1.1630 H   0  0  0  0  0  0  0  0  0  0  0  0
    3.5808   -1.1198   -0.3031 H   0  0  0  0  0  0  0  0  0  0  0  0
    2.4111    0.0442    2.2381 H   0  0  0  0  0  0  0  0  0  0  0  0
    3.7424    0.6314    1.2074 H   0  0  0  0  0  0  0  0  0  0  0  0
    2.2127    2.2702    0.7192 H   0  0  0  0  0  0  0  0  0  0  0  0
    0.9726    1.8058   -1.4216 H   0  0  0  0  0  0  0  0  0  0  0  0
    2.5946    1.0482   -1.4459 H   0  0  0  0  0  0  0  0  0  0  0  0
   -0.1455   -0.2539   -1.0435 H   0  0  0  0  0  0  0  0  0  0  0  0
    1.1181   -0.6630   -2.2514 H   0  0  0  0  0  0  0  0  0  0  0  0
   -1.9090    0.8937    2.2076 H   0  0  0  0  0  0  0  0  0  0  0  0
   -3.7795    2.4998    2.1042 H   0  0  0  0  0  0  0  0  0  0  0  0
   -1.2945    5.2621   -0.0589 H   0  0  0  0  0  0  0  0  0  0  0  0
    0.5721    3.6823    0.0395 H   0  0  0  0  0  0  0  0  0  0  0  0
   -1.4862   -5.9261   -1.7569 H   0  0  0  0  0  0  0  0  0  0  0  0
  1  2  1  0
  2  3  1  0
  3  4  2  0
  4  5  1  0
  5  6  1  0
  6  7  2  0
  6  8  1  0
  8  9  1  0
  9 10  1  0
 10 11  1  0
 11 12  1  0
 12 13  1  0
 11 14  1  0
 14 15  1  0
 15 16  2  0
 16 17  1  0
 17 18  2  0
 18 19  1  0
 18 20  1  0
 20 21  2  0
  5 22  2  0
 22 23  1  0
 23 24  1  0
 23 25  1  0
 22  2  1  0
 13  8  1  0
 15 21  1  0
  1 26  1  0
  1 27  1  0
  1 28  1  0
  4 29  1  0
  9 30  1  0
  9 31  1  0
 10 32  1  0
 10 33  1  0
 11 34  1  0
 12 35  1  0
 12 36  1  0
 13 37  1  0
 13 38  1  0
 16 39  1  0
 17 40  1  0
 20 41  1  0
 21 42  1  0
 23 43  1  0
M  END
$$$$
