
     RDKit          3D

 47 50  0  0  0  0  0  0  0  0999 V2000
    0.1164   -2.1510    2.4872 O   0  0  0  0  0  0  0  0  0  0  0  0
    0.7273   -1.4225    1.6582 C   0  0  0  0  0  0  0  0  0  0  0  0
    0.0016   -0.3042    1.0126 C   0  0  0  0  0  0  0  0  0  0  0  0
   -1.3783   -0.4049    0.7709 C   0  0  0  0  0  0  0  0  0  0  0  0
   -2.0712    0.6504    0.1712 C   0  0  0  0  0  0  0  0  0  0  0  0
   -1.4007    1.8327   -0.1785 C   0  0  0  0  0  0  0  0  0  0  0  0
   -0.0224    1.9345    0.0623 C   0  0  0  0  0  0  0  0  0  0  0  0
    0.6713    0.8801    0.6623 C   0  0  0  0  0  0  0  0  0  0  0  0
   -2.1043    2.9155   -0.8107 N   0  0  0  0  0  0  0  0  0  0  0  0
   -1.6861    3.6338   -1.8835 C   0  0  0  0  0  0  0  0  0  0  0  0
   -2.5708    4.5895   -2.2692 N   0  0  0  0  0  0  0  0  0  0  0  0
   -3.5742    4.4510   -1.3833 C   0  0  0  0  0  0  0  0  0  0  0  0
   -4.7395    5.2094   -1.2995 C   0  0  0  0  0  0  0  0  0  0  0  0
   -5.6378    4.9175   -0.2566 C   0  0  0  0  0  0  0  0  0  0  0  0
   -5.3461    3.8945    0.6733 C   0  0  0  0  0  0  0  0  0  0  0  0
   -4.1581    3.1480    0.5634 C   0  0  0  0  0  0  0  0  0  0  0  0
   -3.3001    3.4470   -0.4991 C   0  0  0  0  0  0  0  0  0  0  0  0
    2.1133   -1.6911    1.3722 N   0  0  0  0  0  0  0  0  0  0  0  0
    2.9952   -2.1282    2.4630 C   0  0  0  0  0  0  0  0  0  0  0  0
    4.3902   -2.4879    1.9424 C   0  0  0  0  0  0  0  0  0  0  0  0
    4.2683   -3.4296    0.7395 C   0  0  0  0  0  0  0  0  0  0  0  0
    3.4063   -2.8425   -0.4278 C   0  0  0  0  0  0  0  0  0  0  0  0
    4.2742   -2.5169   -1.4900 O   0  0  0  0  0  0  0  0  0  0  0  0
    2.3854   -3.9037   -0.9142 C   0  0  0  0  0  0  0  0  0  0  0  0
    3.0462   -5.0144   -1.4640 O   0  0  0  0  0  0  0  0  0  0  0  0
    2.6477   -1.5555    0.0088 C   0  0  0  0  0  0  0  0  0  0  0  0
   -1.9171   -1.3085    1.0284 H   0  0  0  0  0  0  0  0  0  0  0  0
   -3.1262    0.5355   -0.0408 H   0  0  0  0  0  0  0  0  0  0  0  0
    0.5113    2.8398   -0.1980 H   0  0  0  0  0  0  0  0  0  0  0  0
    1.7275    0.9982    0.8674 H   0  0  0  0  0  0  0  0  0  0  0  0
   -0.7480    3.4587   -2.3945 H   0  0  0  0  0  0  0  0  0  0  0  0
   -4.9441    6.0025   -2.0070 H   0  0  0  0  0  0  0  0  0  0  0  0
   -6.5524    5.4879   -0.1596 H   0  0  0  0  0  0  0  0  0  0  0  0
   -6.0366    3.6892    1.4809 H   0  0  0  0  0  0  0  0  0  0  0  0
   -3.9214    2.3856    1.2924 H   0  0  0  0  0  0  0  0  0  0  0  0
    3.0807   -1.3181    3.2187 H   0  0  0  0  0  0  0  0  0  0  0  0
    2.5585   -3.0241    2.9563 H   0  0  0  0  0  0  0  0  0  0  0  0
    4.9707   -2.9845    2.7498 H   0  0  0  0  0  0  0  0  0  0  0  0
    4.9367   -1.5658    1.6468 H   0  0  0  0  0  0  0  0  0  0  0  0
    5.2906   -3.6753    0.3769 H   0  0  0  0  0  0  0  0  0  0  0  0
    3.8383   -4.3845    1.1151 H   0  0  0  0  0  0  0  0  0  0  0  0
    3.7271   -2.1469   -2.2325 H   0  0  0  0  0  0  0  0  0  0  0  0
    1.7384   -3.4690   -1.7063 H   0  0  0  0  0  0  0  0  0  0  0  0
    1.7109   -4.2079   -0.0788 H   0  0  0  0  0  0  0  0  0  0  0  0
    3.1136   -5.6993   -0.7492 H   0  0  0  0  0  0  0  0  0  0  0  0
    1.8384   -1.3244   -0.7183 H   0  0  0  0  0  0  0  0  0  0  0  0
    3.3470   -0.6912   -0.0107 H   0  0  0  0  0  0  0  0  0  0  0  0
  1  2  2  0
  2  3  1  0
  3  4  2  0
  4  5  1  0
  5  6  2  0
  6  7  1  0
  7  8  2  0
  6  9  1  0
  9 10  1  0
 10 11  2  0
 11 12  1  0
 12 13  2  0
 13 14  1  0
 14 15  2  0
 15 16  1  0
 16 17  2  0
  2 18  1  0
 18 19  1  0
 19 20  1  0
 20 21  1  0
 21 22  1  0
 22 23  1  0
 22 24  1  0
 24 25  1  0
 22 26  1  0
  3  8  1  0
 17  9  1  0
 12 17  1  0
 26 18  1  0
  4 27  1  0
  5 28  1  0
  7 29  1  0
  8 30  1  0
 10 31  1  0
 13 32  1  0
 14 33  1  0
 15 34  1  0
 16 35  1  0
 19 36  1  0
 19 37  1  0
 20 38  1  0
 20 39  1  0
 21 40  1  0
 21 41  1  0
 23 42  1  0
 24 43  1  0
 24 44  1  0
 25 45  1  0
 26 46  1  0
 26 47  1  0
M  END
$$$$
