
     RDKit          3D

 36 38  0  0  0  0  0  0  0  0999 V2000
   -0.4498   -0.4045   -1.7393 O   0  0  0  0  0  0  0  0  0  0  0  0
   -1.2668   -0.7013   -0.8268 C   0  0  0  0  0  0  0  0  0  0  0  0
   -0.8173   -0.9032    0.5235 N   0  0  0  0  0  0  0  0  0  0  0  0
    0.5336   -0.6892    0.9632 C   0  0  0  0  0  0  0  0  0  0  0  0
    0.7608   -0.0935    2.2119 C   0  0  0  0  0  0  0  0  0  0  0  0
    2.0640    0.1167    2.6686 C   0  0  0  0  0  0  0  0  0  0  0  0
    3.1527   -0.2842    1.8913 C   0  0  0  0  0  0  0  0  0  0  0  0
    2.9442   -0.9180    0.6566 C   0  0  0  0  0  0  0  0  0  0  0  0
    1.6320   -1.1170    0.1957 C   0  0  0  0  0  0  0  0  0  0  0  0
    4.1196   -1.3409   -0.1861 C   0  0  0  0  0  0  0  0  0  0  0  0
    4.6070   -0.1947   -1.0724 C   0  0  0  0  0  0  0  0  0  0  0  0
    3.6151    0.1534   -1.9988 O   0  0  0  0  0  0  0  0  0  0  0  0
   -2.6869   -0.8656   -1.1717 C   0  0  0  0  0  0  0  0  0  0  0  0
   -3.1772   -1.5395   -2.2887 C   0  0  0  0  0  0  0  0  0  0  0  0
   -4.5298   -1.5321   -2.2922 N   0  0  0  0  0  0  0  0  0  0  0  0
   -4.8901   -0.8467   -1.1961 C   0  0  0  0  0  0  0  0  0  0  0  0
   -6.1597   -0.5593   -0.8199 N   0  0  0  0  0  0  0  0  0  0  0  0
   -6.3507    0.1948    0.3023 C   0  0  0  0  0  0  0  0  0  0  0  0
   -5.2788    0.6706    1.0098 N   0  0  0  0  0  0  0  0  0  0  0  0
   -3.9959    0.3940    0.6320 C   0  0  0  0  0  0  0  0  0  0  0  0
   -2.9246    0.9343    1.3349 O   0  0  0  0  0  0  0  0  0  0  0  0
   -3.8052   -0.4134   -0.4890 C   0  0  0  0  0  0  0  0  0  0  0  0
   -1.5262   -1.1523    1.2493 H   0  0  0  0  0  0  0  0  0  0  0  0
   -0.0751    0.2229    2.8235 H   0  0  0  0  0  0  0  0  0  0  0  0
    2.2303    0.5931    3.6261 H   0  0  0  0  0  0  0  0  0  0  0  0
    4.1578   -0.1082    2.2542 H   0  0  0  0  0  0  0  0  0  0  0  0
    1.4727   -1.6270   -0.7452 H   0  0  0  0  0  0  0  0  0  0  0  0
    4.9531   -1.6694    0.4724 H   0  0  0  0  0  0  0  0  0  0  0  0
    3.8467   -2.2112   -0.8225 H   0  0  0  0  0  0  0  0  0  0  0  0
    5.5216   -0.5240   -1.6139 H   0  0  0  0  0  0  0  0  0  0  0  0
    4.8667    0.6853   -0.4416 H   0  0  0  0  0  0  0  0  0  0  0  0
    3.9877    0.9032   -2.5315 H   0  0  0  0  0  0  0  0  0  0  0  0
   -2.5757   -2.0215   -3.0486 H   0  0  0  0  0  0  0  0  0  0  0  0
   -5.1598   -1.9602   -3.0063 H   0  0  0  0  0  0  0  0  0  0  0  0
   -7.3550    0.4324    0.6249 H   0  0  0  0  0  0  0  0  0  0  0  0
   -3.0780    1.5257    2.1426 H   0  0  0  0  0  0  0  0  0  0  0  0
  1  2  2  0
  2  3  1  0
  3  4  1  0
  4  5  2  0
  5  6  1  0
  6  7  2  0
  7  8  1  0
  8  9  2  0
  8 10  1  0
 10 11  1  0
 11 12  1  0
  2 13  1  0
 13 14  2  0
 14 15  1  0
 15 16  1  0
 16 17  2  0
 17 18  1  0
 18 19  2  0
 19 20  1  0
 20 21  1  0
 20 22  2  0
  4  9  1  0
 22 13  1  0
 16 22  1  0
  3 23  1  0
  5 24  1  0
  6 25  1  0
  7 26  1  0
  9 27  1  0
 10 28  1  0
 10 29  1  0
 11 30  1  0
 11 31  1  0
 12 32  1  0
 14 33  1  0
 15 34  1  0
 18 35  1  0
 21 36  1  0
M  END
$$$$
