
     RDKit          3D

 45 49  0  0  0  0  0  0  0  0999 V2000
    3.8087   -0.7085   -2.1334 O   0  0  0  0  0  0  0  0  0  0  0  0
    3.3224    0.0926   -3.1734 C   0  0  0  0  0  0  0  0  0  0  0  0
    2.5517    1.2943   -2.6159 C   0  0  0  0  0  0  0  0  0  0  0  0
    1.2359    0.8834   -1.9190 C   0  0  0  0  0  0  0  0  0  0  0  0
    1.4594    0.3061   -0.4879 C   0  0  0  0  0  0  0  0  0  0  0  0
    0.6756    1.1472    0.4162 N   0  0  0  0  0  0  0  0  0  0  0  0
    0.5120    0.8877    1.8465 C   0  0  0  0  0  0  0  0  0  0  0  0
   -0.7328    0.0354    2.1012 C   0  0  0  0  0  0  0  0  0  0  0  0
   -1.1005   -0.2958    3.5398 C   0  0  0  0  0  0  0  0  0  0  0  0
   -2.4200   -0.5190    2.8287 C   0  0  0  0  0  0  0  0  0  0  0  0
   -2.1181    0.6293    1.8879 C   0  0  0  0  0  0  0  0  0  0  0  0
   -2.0329   -1.6870    1.9376 C   0  0  0  0  0  0  0  0  0  0  0  0
   -0.7855   -1.2172    1.4387 O   0  0  0  0  0  0  0  0  0  0  0  0
   -3.6984   -0.5410    3.6031 C   0  0  0  0  0  0  0  0  0  0  0  0
   -3.8305   -1.0771    4.8320 N   0  0  0  0  0  0  0  0  0  0  0  0
   -5.1160   -0.9500    5.1183 N   0  0  0  0  0  0  0  0  0  0  0  0
   -5.7315   -0.3727    4.1010 N   0  0  0  0  0  0  0  0  0  0  0  0
   -4.8800   -0.1080    3.1257 N   0  0  0  0  0  0  0  0  0  0  0  0
    0.0612    2.1808   -0.3342 C   0  0  0  0  0  0  0  0  0  0  0  0
   -0.7501    3.2132    0.1497 C   0  0  0  0  0  0  0  0  0  0  0  0
   -1.2907    4.1253   -0.7697 C   0  0  0  0  0  0  0  0  0  0  0  0
   -1.0169    3.9926   -2.1436 C   0  0  0  0  0  0  0  0  0  0  0  0
   -0.1912    2.9542   -2.6022 C   0  0  0  0  0  0  0  0  0  0  0  0
    0.3546    2.0688   -1.6671 C   0  0  0  0  0  0  0  0  0  0  0  0
    4.2807   -1.4660   -2.5671 H   0  0  0  0  0  0  0  0  0  0  0  0
    2.6597   -0.5049   -3.8388 H   0  0  0  0  0  0  0  0  0  0  0  0
    4.1777    0.4680   -3.7784 H   0  0  0  0  0  0  0  0  0  0  0  0
    2.3187    1.9603   -3.4747 H   0  0  0  0  0  0  0  0  0  0  0  0
    3.1996    1.8708   -1.9195 H   0  0  0  0  0  0  0  0  0  0  0  0
    0.6746    0.1547   -2.5450 H   0  0  0  0  0  0  0  0  0  0  0  0
    2.5252    0.3399   -0.1769 H   0  0  0  0  0  0  0  0  0  0  0  0
    1.0991   -0.7437   -0.4390 H   0  0  0  0  0  0  0  0  0  0  0  0
    0.4516    1.8443    2.4068 H   0  0  0  0  0  0  0  0  0  0  0  0
    1.4002    0.3373    2.2242 H   0  0  0  0  0  0  0  0  0  0  0  0
   -0.6005   -1.1978    3.9654 H   0  0  0  0  0  0  0  0  0  0  0  0
   -1.0990    0.5861    4.2236 H   0  0  0  0  0  0  0  0  0  0  0  0
   -2.5178    0.5474    0.8496 H   0  0  0  0  0  0  0  0  0  0  0  0
   -2.2641    1.6325    2.3524 H   0  0  0  0  0  0  0  0  0  0  0  0
   -2.7577   -1.8446    1.1077 H   0  0  0  0  0  0  0  0  0  0  0  0
   -1.8996   -2.6310    2.5120 H   0  0  0  0  0  0  0  0  0  0  0  0
   -6.7530   -0.1610    4.0694 H   0  0  0  0  0  0  0  0  0  0  0  0
   -0.9622    3.3180    1.2038 H   0  0  0  0  0  0  0  0  0  0  0  0
   -1.9243    4.9305   -0.4213 H   0  0  0  0  0  0  0  0  0  0  0  0
   -1.4442    4.6932   -2.8490 H   0  0  0  0  0  0  0  0  0  0  0  0
    0.0154    2.8439   -3.6587 H   0  0  0  0  0  0  0  0  0  0  0  0
  1  2  1  0
  2  3  1  0
  3  4  1  0
  4  5  1  0
  5  6  1  0
  6  7  1  0
  7  8  1  0
  8  9  1  0
  9 10  1  0
 10 11  1  0
 10 12  1  0
 12 13  1  0
 10 14  1  0
 14 15  1  0
 15 16  2  0
 16 17  1  0
 17 18  1  0
  6 19  1  0
 19 20  2  0
 20 21  1  0
 21 22  2  0
 22 23  1  0
 23 24  2  0
 24  4  1  0
 11  8  1  0
 13  8  1  0
 14 18  2  0
 19 24  1  0
  1 25  1  0
  2 26  1  0
  2 27  1  0
  3 28  1  0
  3 29  1  0
  4 30  1  0
  5 31  1  0
  5 32  1  0
  7 33  1  0
  7 34  1  0
  9 35  1  0
  9 36  1  0
 11 37  1  0
 11 38  1  0
 12 39  1  0
 12 40  1  0
 17 41  1  0
 20 42  1  0
 21 43  1  0
 22 44  1  0
 23 45  1  0
M  END
$$$$
