
     RDKit          3D

 40 42  0  0  0  0  0  0  0  0999 V2000
   -2.1963   -0.3890   -2.2823 O   0  0  0  0  0  0  0  0  0  0  0  0
   -1.3119   -0.2087   -1.4007 C   0  0  0  0  0  0  0  0  0  0  0  0
   -0.2423   -1.1593   -1.2605 N   0  0  0  0  0  0  0  0  0  0  0  0
    0.1724   -2.0553   -2.3065 C   0  0  0  0  0  0  0  0  0  0  0  0
    0.0854   -1.6910   -3.6616 C   0  0  0  0  0  0  0  0  0  0  0  0
    0.5167   -2.5709   -4.6585 C   0  0  0  0  0  0  0  0  0  0  0  0
    1.0517   -3.8199   -4.3241 C   0  0  0  0  0  0  0  0  0  0  0  0
    1.1590   -4.1781   -2.9669 C   0  0  0  0  0  0  0  0  0  0  0  0
    0.7286   -3.2979   -1.9696 C   0  0  0  0  0  0  0  0  0  0  0  0
    1.4680   -4.6655   -5.3640 O   0  0  0  0  0  0  0  0  0  0  0  0
    2.0067   -5.9718   -5.1818 C   0  0  0  0  0  0  0  0  0  0  0  0
    1.0492   -6.8046   -4.6313 F   0  0  0  0  0  0  0  0  0  0  0  0
    2.3895   -6.4776   -6.4089 F   0  0  0  0  0  0  0  0  0  0  0  0
   -1.4186    0.9554   -0.4875 C   0  0  0  0  0  0  0  0  0  0  0  0
   -2.6387    1.6418   -0.3548 C   0  0  0  0  0  0  0  0  0  0  0  0
   -2.7451    2.7426    0.4998 C   0  0  0  0  0  0  0  0  0  0  0  0
   -1.6402    3.1743    1.2455 C   0  0  0  0  0  0  0  0  0  0  0  0
   -0.4104    2.5134    1.0893 C   0  0  0  0  0  0  0  0  0  0  0  0
   -0.3018    1.4121    0.2350 C   0  0  0  0  0  0  0  0  0  0  0  0
   -1.7703    4.3239    2.0990 N   0  0  0  0  0  0  0  0  0  0  0  0
   -1.0876    4.4808    3.3512 C   0  0  0  0  0  0  0  0  0  0  0  0
   -1.1022    5.6894    3.9758 N   0  0  0  0  0  0  0  0  0  0  0  0
   -0.4911    5.8662    5.1761 C   0  0  0  0  0  0  0  0  0  0  0  0
    0.1567    4.7959    5.7908 C   0  0  0  0  0  0  0  0  0  0  0  0
    0.1528    3.5599    5.1467 C   0  0  0  0  0  0  0  0  0  0  0  0
   -0.4699    3.4235    3.9474 N   0  0  0  0  0  0  0  0  0  0  0  0
    0.1815   -1.2851   -0.3137 H   0  0  0  0  0  0  0  0  0  0  0  0
   -0.2935   -0.7200   -3.9512 H   0  0  0  0  0  0  0  0  0  0  0  0
    0.4416   -2.2774   -5.6979 H   0  0  0  0  0  0  0  0  0  0  0  0
    1.5754   -5.1309   -2.6709 H   0  0  0  0  0  0  0  0  0  0  0  0
    0.8204   -3.5887   -0.9305 H   0  0  0  0  0  0  0  0  0  0  0  0
    2.8982   -5.9306   -4.5210 H   0  0  0  0  0  0  0  0  0  0  0  0
   -3.5146    1.3235   -0.9064 H   0  0  0  0  0  0  0  0  0  0  0  0
   -3.6949    3.2548    0.5900 H   0  0  0  0  0  0  0  0  0  0  0  0
    0.4747    2.8648    1.6028 H   0  0  0  0  0  0  0  0  0  0  0  0
    0.6650    0.9394    0.1226 H   0  0  0  0  0  0  0  0  0  0  0  0
   -2.4661    5.0577    1.8340 H   0  0  0  0  0  0  0  0  0  0  0  0
   -0.5110    6.8368    5.6534 H   0  0  0  0  0  0  0  0  0  0  0  0
    0.6473    4.9206    6.7474 H   0  0  0  0  0  0  0  0  0  0  0  0
    0.6415    2.7081    5.6003 H   0  0  0  0  0  0  0  0  0  0  0  0
  1  2  2  0
  2  3  1  0
  3  4  1  0
  4  5  2  0
  5  6  1  0
  6  7  2  0
  7  8  1  0
  8  9  2  0
  7 10  1  0
 10 11  1  0
 11 12  1  0
 11 13  1  0
  2 14  1  0
 14 15  2  0
 15 16  1  0
 16 17  2  0
 17 18  1  0
 18 19  2  0
 17 20  1  0
 20 21  1  0
 21 22  2  0
 22 23  1  0
 23 24  2  0
 24 25  1  0
 25 26  2  0
  4  9  1  0
 14 19  1  0
 21 26  1  0
  3 27  1  0
  5 28  1  0
  6 29  1  0
  8 30  1  0
  9 31  1  0
 11 32  1  0
 15 33  1  0
 16 34  1  0
 18 35  1  0
 19 36  1  0
 20 37  1  0
 23 38  1  0
 24 39  1  0
 25 40  1  0
M  END
$$$$
