
     RDKit          3D

 42 45  0  0  0  0  0  0  0  0999 V2000
    2.1435    0.2000    2.2074 O   0  0  0  0  0  0  0  0  0  0  0  0
    1.0953    0.9001    2.2455 C   0  0  0  0  0  0  0  0  0  0  0  0
   -0.1454    0.3947    1.7294 N   0  0  0  0  0  0  0  0  0  0  0  0
   -0.3039   -0.9026    1.1320 C   0  0  0  0  0  0  0  0  0  0  0  0
    0.3360   -2.0394    1.6499 C   0  0  0  0  0  0  0  0  0  0  0  0
    0.1393   -3.2861    1.0531 C   0  0  0  0  0  0  0  0  0  0  0  0
   -0.7114   -3.3962   -0.0574 C   0  0  0  0  0  0  0  0  0  0  0  0
   -1.3397   -2.2829   -0.5277 N   0  0  0  0  0  0  0  0  0  0  0  0
   -1.1645   -1.0596    0.0381 C   0  0  0  0  0  0  0  0  0  0  0  0
   -0.9305   -4.6653   -0.6947 N   0  0  0  0  0  0  0  0  0  0  0  0
   -1.7103   -4.8869   -1.7710 C   0  0  0  0  0  0  0  0  0  0  0  0
   -1.6575   -6.2289   -2.0781 C   0  0  0  0  0  0  0  0  0  0  0  0
   -0.8128   -6.7734   -1.1310 C   0  0  0  0  0  0  0  0  0  0  0  0
   -0.3822   -5.8046   -0.3003 N   0  0  0  0  0  0  0  0  0  0  0  0
    1.1344    2.2799    2.8417 C   0  0  0  0  0  0  0  0  0  0  0  0
    2.4550    3.0346    2.7171 C   0  0  0  0  0  0  0  0  0  0  0  0
    1.2603    3.4571    1.8687 C   0  0  0  0  0  0  0  0  0  0  0  0
    1.4431    3.1912    0.3564 C   0  0  0  0  0  0  0  0  0  0  0  0
    2.2356    4.3081   -0.3089 C   0  0  0  0  0  0  0  0  0  0  0  0
    1.8031    4.2859   -1.7643 C   0  0  0  0  0  0  0  0  0  0  0  0
    0.3761    3.7465   -1.7740 C   0  0  0  0  0  0  0  0  0  0  0  0
    0.1089    3.1647   -0.3865 C   0  0  0  0  0  0  0  0  0  0  0  0
   -0.9501    1.0595    1.6722 H   0  0  0  0  0  0  0  0  0  0  0  0
    0.9632   -1.9728    2.5284 H   0  0  0  0  0  0  0  0  0  0  0  0
    0.6396   -4.1555    1.4597 H   0  0  0  0  0  0  0  0  0  0  0  0
   -1.6871   -0.2052   -0.3722 H   0  0  0  0  0  0  0  0  0  0  0  0
   -2.2782   -4.1312   -2.2986 H   0  0  0  0  0  0  0  0  0  0  0  0
   -2.1656   -6.7424   -2.8831 H   0  0  0  0  0  0  0  0  0  0  0  0
   -0.5290   -7.8142   -1.0526 H   0  0  0  0  0  0  0  0  0  0  0  0
    0.5559    2.4859    3.7668 H   0  0  0  0  0  0  0  0  0  0  0  0
    3.2719    2.5146    2.1712 H   0  0  0  0  0  0  0  0  0  0  0  0
    2.6673    3.7186    3.5653 H   0  0  0  0  0  0  0  0  0  0  0  0
    0.7876    4.4065    2.2011 H   0  0  0  0  0  0  0  0  0  0  0  0
    1.9763    2.2329    0.1623 H   0  0  0  0  0  0  0  0  0  0  0  0
    3.3306    4.1432   -0.2096 H   0  0  0  0  0  0  0  0  0  0  0  0
    1.9722    5.2955    0.1331 H   0  0  0  0  0  0  0  0  0  0  0  0
    1.8564    5.3016   -2.2131 H   0  0  0  0  0  0  0  0  0  0  0  0
    2.4663    3.6007   -2.3376 H   0  0  0  0  0  0  0  0  0  0  0  0
    0.2668    2.9616   -2.5543 H   0  0  0  0  0  0  0  0  0  0  0  0
   -0.3437    4.5663   -1.9899 H   0  0  0  0  0  0  0  0  0  0  0  0
   -0.2786    2.1267   -0.4660 H   0  0  0  0  0  0  0  0  0  0  0  0
   -0.6493    3.7911    0.1353 H   0  0  0  0  0  0  0  0  0  0  0  0
  1  2  2  0
  2  3  1  0
  3  4  1  0
  4  5  2  0
  5  6  1  0
  6  7  2  0
  7  8  1  0
  8  9  2  0
  7 10  1  0
 10 11  1  0
 11 12  2  0
 12 13  1  0
 13 14  2  0
  2 15  1  0
 15 16  1  0
 16 17  1  0
 17 18  1  0
 18 19  1  0
 19 20  1  0
 20 21  1  0
 21 22  1  0
  4  9  1  0
 14 10  1  0
 17 15  1  0
 22 18  1  0
  3 23  1  0
  5 24  1  0
  6 25  1  0
  9 26  1  0
 11 27  1  0
 12 28  1  0
 13 29  1  0
 15 30  1  0
 16 31  1  0
 16 32  1  0
 17 33  1  0
 18 34  1  0
 19 35  1  0
 19 36  1  0
 20 37  1  0
 20 38  1  0
 21 39  1  0
 21 40  1  0
 22 41  1  0
 22 42  1  0
M  END
$$$$
