
     RDKit          3D

 37 40  0  0  0  0  0  0  0  0999 V2000
   -1.9808    3.1611   -0.2780 O   0  0  0  0  0  0  0  0  0  0  0  0
   -1.8003    1.9156   -0.3135 C   0  0  0  0  0  0  0  0  0  0  0  0
   -2.1625    1.0499    0.7537 N   0  0  0  0  0  0  0  0  0  0  0  0
   -1.7466   -0.3024    0.3895 C   0  0  0  0  0  0  0  0  0  0  0  0
   -2.9143   -1.3155    0.4687 C   0  0  0  0  0  0  0  0  0  0  0  0
   -2.4647   -2.4417    1.4227 C   0  0  0  0  0  0  0  0  0  0  0  0
   -1.1282   -2.0094    1.9021 C   0  0  0  0  0  0  0  0  0  0  0  0
   -0.3107   -2.6851    2.8119 C   0  0  0  0  0  0  0  0  0  0  0  0
    0.9356   -2.1305    3.1426 C   0  0  0  0  0  0  0  0  0  0  0  0
    1.3459   -0.9166    2.5629 C   0  0  0  0  0  0  0  0  0  0  0  0
    0.5108   -0.2538    1.6518 C   0  0  0  0  0  0  0  0  0  0  0  0
   -0.7276   -0.8250    1.3352 C   0  0  0  0  0  0  0  0  0  0  0  0
   -1.1870   -0.1243   -0.9940 C   0  0  0  0  0  0  0  0  0  0  0  0
   -0.7067   -1.0554   -1.6952 O   0  0  0  0  0  0  0  0  0  0  0  0
   -1.2072    1.2382   -1.4129 N   0  0  0  0  0  0  0  0  0  0  0  0
   -0.2684    1.8301   -2.3648 C   0  0  0  0  0  0  0  0  0  0  0  0
    1.1119    1.8812   -1.7625 C   0  0  0  0  0  0  0  0  0  0  0  0
    1.8488    0.7352   -1.7466 N   0  0  0  0  0  0  0  0  0  0  0  0
    3.0730    0.6660   -1.1621 C   0  0  0  0  0  0  0  0  0  0  0  0
    3.6134    1.7916   -0.5406 C   0  0  0  0  0  0  0  0  0  0  0  0
    5.1869    1.7094    0.2295 Cl  0  0  0  0  0  0  0  0  0  0  0  0
    2.8861    2.9826   -0.5361 C   0  0  0  0  0  0  0  0  0  0  0  0
    1.6279    3.0404   -1.1441 C   0  0  0  0  0  0  0  0  0  0  0  0
    0.7530    4.5669   -1.1126 Cl  0  0  0  0  0  0  0  0  0  0  0  0
   -2.5701    1.3461    1.6687 H   0  0  0  0  0  0  0  0  0  0  0  0
   -3.1614   -1.7383   -0.5301 H   0  0  0  0  0  0  0  0  0  0  0  0
   -3.8310   -0.8305    0.8709 H   0  0  0  0  0  0  0  0  0  0  0  0
   -2.3786   -3.4079    0.8805 H   0  0  0  0  0  0  0  0  0  0  0  0
   -3.1664   -2.5433    2.2785 H   0  0  0  0  0  0  0  0  0  0  0  0
   -0.6304   -3.6204    3.2531 H   0  0  0  0  0  0  0  0  0  0  0  0
    1.5833   -2.6394    3.8447 H   0  0  0  0  0  0  0  0  0  0  0  0
    2.3084   -0.4932    2.8187 H   0  0  0  0  0  0  0  0  0  0  0  0
    0.8222    0.6796    1.2005 H   0  0  0  0  0  0  0  0  0  0  0  0
   -0.6242    2.8343   -2.6745 H   0  0  0  0  0  0  0  0  0  0  0  0
   -0.2405    1.2065   -3.2841 H   0  0  0  0  0  0  0  0  0  0  0  0
    3.6197   -0.2676   -1.1743 H   0  0  0  0  0  0  0  0  0  0  0  0
    3.2970    3.8625   -0.0571 H   0  0  0  0  0  0  0  0  0  0  0  0
  1  2  2  0
  2  3  1  0
  3  4  1  0
  4  5  1  0
  5  6  1  0
  6  7  1  0
  7  8  2  0
  8  9  1  0
  9 10  2  0
 10 11  1  0
 11 12  2  0
  4 13  1  0
 13 14  2  0
 13 15  1  0
 15 16  1  0
 16 17  1  0
 17 18  2  0
 18 19  1  0
 19 20  2  0
 20 21  1  0
 20 22  1  0
 22 23  2  0
 23 24  1  0
 15  2  1  0
 12  4  1  0
  7 12  1  0
 17 23  1  0
  3 25  1  0
  5 26  1  0
  5 27  1  0
  6 28  1  0
  6 29  1  0
  8 30  1  0
  9 31  1  0
 10 32  1  0
 11 33  1  0
 16 34  1  0
 16 35  1  0
 19 36  1  0
 22 37  1  0
M  END
$$$$
