
     RDKit          3D

 47 49  0  0  0  0  0  0  0  0999 V2000
   -2.8069   -2.0314   -2.6096 C   0  0  0  0  0  0  0  0  0  0  0  0
   -1.4952   -2.1840   -1.9531 N   0  0  0  0  0  0  0  0  0  0  0  0
   -1.2324   -3.6167   -1.7310 C   0  0  0  0  0  0  0  0  0  0  0  0
   -1.4372   -1.4629   -0.6594 C   0  0  0  0  0  0  0  0  0  0  0  0
   -1.4844    0.0766   -0.8349 C   0  0  0  0  0  0  0  0  0  0  0  0
   -1.4327    0.8617    0.4787 C   0  0  0  0  0  0  0  0  0  0  0  0
   -2.1310    2.0825    0.5708 C   0  0  0  0  0  0  0  0  0  0  0  0
   -2.1001    2.8384    1.7457 C   0  0  0  0  0  0  0  0  0  0  0  0
   -1.3768    2.3871    2.8498 C   0  0  0  0  0  0  0  0  0  0  0  0
   -0.6869    1.1764    2.7822 C   0  0  0  0  0  0  0  0  0  0  0  0
   -0.7144    0.4149    1.6102 C   0  0  0  0  0  0  0  0  0  0  0  0
   -0.5111    0.5356   -1.8680 N   0  0  0  0  0  0  0  0  0  0  0  0
   -0.9609    1.7549   -2.5561 C   0  0  0  0  0  0  0  0  0  0  0  0
    1.1460    0.7541   -1.3277 S   0  0  0  0  0  0  0  0  0  0  0  0
    1.2120    1.7569   -0.2094 O   0  0  0  0  0  0  0  0  0  0  0  0
    1.9757    1.2790   -2.4666 O   0  0  0  0  0  0  0  0  0  0  0  0
    1.8684   -0.7677   -0.8189 C   0  0  0  0  0  0  0  0  0  0  0  0
    2.3769   -0.9750    0.4639 C   0  0  0  0  0  0  0  0  0  0  0  0
    2.9893   -2.5461    0.5649 S   0  0  0  0  0  0  0  0  0  0  0  0
    2.6258   -2.9611   -1.0190 C   0  0  0  0  0  0  0  0  0  0  0  0
    2.8579   -4.1726   -1.6653 C   0  0  0  0  0  0  0  0  0  0  0  0
    2.4623   -4.2954   -3.0055 C   0  0  0  0  0  0  0  0  0  0  0  0
    1.8508   -3.2142   -3.6678 C   0  0  0  0  0  0  0  0  0  0  0  0
    1.6277   -2.0011   -2.9956 C   0  0  0  0  0  0  0  0  0  0  0  0
    2.0210   -1.8866   -1.6553 C   0  0  0  0  0  0  0  0  0  0  0  0
   -3.6424   -2.2460   -1.9068 H   0  0  0  0  0  0  0  0  0  0  0  0
   -2.8918   -2.7149   -3.4827 H   0  0  0  0  0  0  0  0  0  0  0  0
   -2.9149   -1.0062   -3.0182 H   0  0  0  0  0  0  0  0  0  0  0  0
   -2.0230   -4.0779   -1.0976 H   0  0  0  0  0  0  0  0  0  0  0  0
   -0.2488   -3.7627   -1.2368 H   0  0  0  0  0  0  0  0  0  0  0  0
   -1.1840   -4.1526   -2.7034 H   0  0  0  0  0  0  0  0  0  0  0  0
   -0.4979   -1.7393   -0.1458 H   0  0  0  0  0  0  0  0  0  0  0  0
   -2.2724   -1.7839    0.0048 H   0  0  0  0  0  0  0  0  0  0  0  0
   -2.5128    0.2557   -1.2176 H   0  0  0  0  0  0  0  0  0  0  0  0
   -2.7077    2.4504   -0.2684 H   0  0  0  0  0  0  0  0  0  0  0  0
   -2.6398    3.7751    1.8000 H   0  0  0  0  0  0  0  0  0  0  0  0
   -1.3534    2.9740    3.7588 H   0  0  0  0  0  0  0  0  0  0  0  0
   -0.1276    0.8263    3.6403 H   0  0  0  0  0  0  0  0  0  0  0  0
   -0.1648   -0.5119    1.6039 H   0  0  0  0  0  0  0  0  0  0  0  0
   -0.8862    2.6413   -1.8910 H   0  0  0  0  0  0  0  0  0  0  0  0
   -0.3362    1.9312   -3.4567 H   0  0  0  0  0  0  0  0  0  0  0  0
   -2.0068    1.6466   -2.9143 H   0  0  0  0  0  0  0  0  0  0  0  0
    2.3787   -0.2511    1.2675 H   0  0  0  0  0  0  0  0  0  0  0  0
    3.3284   -4.9986   -1.1482 H   0  0  0  0  0  0  0  0  0  0  0  0
    2.6275   -5.2261   -3.5324 H   0  0  0  0  0  0  0  0  0  0  0  0
    1.5465   -3.3195   -4.7010 H   0  0  0  0  0  0  0  0  0  0  0  0
    1.1492   -1.1805   -3.5132 H   0  0  0  0  0  0  0  0  0  0  0  0
  1  2  1  0
  2  3  1  0
  2  4  1  0
  4  5  1  0
  5  6  1  0
  6  7  2  0
  7  8  1  0
  8  9  2  0
  9 10  1  0
 10 11  2  0
  5 12  1  0
 12 13  1  0
 12 14  1  0
 14 15  2  0
 14 16  2  0
 14 17  1  0
 17 18  2  0
 18 19  1  0
 19 20  1  0
 20 21  2  0
 21 22  1  0
 22 23  2  0
 23 24  1  0
 24 25  2  0
  6 11  1  0
 25 17  1  0
 20 25  1  0
  1 26  1  0
  1 27  1  0
  1 28  1  0
  3 29  1  0
  3 30  1  0
  3 31  1  0
  4 32  1  0
  4 33  1  0
  5 34  1  0
  7 35  1  0
  8 36  1  0
  9 37  1  0
 10 38  1  0
 11 39  1  0
 13 40  1  0
 13 41  1  0
 13 42  1  0
 18 43  1  0
 21 44  1  0
 22 45  1  0
 23 46  1  0
 24 47  1  0
M  END
$$$$
