
     RDKit          3D

 34 37  0  0  0  0  0  0  0  0999 V2000
   -0.2961   -2.9837    0.3622 C   0  0  0  0  0  0  0  0  0  0  0  0
    0.1969   -2.2439   -0.8898 C   0  0  1  0  0  0  0  0  0  0  0  0
   -0.7470   -1.1901   -1.2798 N   0  0  0  0  0  0  0  0  0  0  0  0
   -0.9819    0.0096   -0.5222 C   0  0  0  0  0  0  0  0  0  0  0  0
   -0.3023    0.2642    0.6378 N   0  0  0  0  0  0  0  0  0  0  0  0
   -0.5081    1.4064    1.3640 C   0  0  0  0  0  0  0  0  0  0  0  0
    0.2037    1.6404    2.5444 C   0  0  0  0  0  0  0  0  0  0  0  0
   -0.0207    2.8156    3.2716 C   0  0  0  0  0  0  0  0  0  0  0  0
   -0.9547    3.7586    2.8226 C   0  0  0  0  0  0  0  0  0  0  0  0
   -1.6726    3.5355    1.6421 C   0  0  0  0  0  0  0  0  0  0  0  0
   -1.4510    2.3607    0.9112 C   0  0  0  0  0  0  0  0  0  0  0  0
   -2.1082    2.0787   -0.2417 N   0  0  0  0  0  0  0  0  0  0  0  0
   -3.0224    2.7819   -0.8811 N   0  0  0  0  0  0  0  0  0  0  0  0
   -3.3693    2.0967   -1.9672 N   0  0  0  0  0  0  0  0  0  0  0  0
   -2.6877    0.9535   -2.0395 N   0  0  0  0  0  0  0  0  0  0  0  0
   -1.9052    0.9672   -0.9466 C   0  0  0  0  0  0  0  0  0  0  0  0
    1.6075   -1.6958   -0.7986 C   0  0  0  0  0  0  0  0  0  0  0  0
    2.2583   -1.4322    0.4228 C   0  0  0  0  0  0  0  0  0  0  0  0
    3.5117   -0.9073    0.4155 N   0  0  0  0  0  0  0  0  0  0  0  0
    4.1534   -0.6265   -0.7475 C   0  0  0  0  0  0  0  0  0  0  0  0
    3.5131   -0.8772   -1.9601 C   0  0  0  0  0  0  0  0  0  0  0  0
    2.2595   -1.3999   -1.9570 N   0  0  0  0  0  0  0  0  0  0  0  0
   -1.2732   -3.4662    0.1471 H   0  0  0  0  0  0  0  0  0  0  0  0
   -0.4376   -2.2940    1.2190 H   0  0  0  0  0  0  0  0  0  0  0  0
    0.4274   -3.7769    0.6476 H   0  0  0  0  0  0  0  0  0  0  0  0
    0.2103   -3.0046   -1.7025 H   0  0  0  0  0  0  0  0  0  0  0  0
   -1.2655   -1.3199   -2.1782 H   0  0  0  0  0  0  0  0  0  0  0  0
    0.9282    0.9174    2.8984 H   0  0  0  0  0  0  0  0  0  0  0  0
    0.5304    2.9966    4.1853 H   0  0  0  0  0  0  0  0  0  0  0  0
   -1.1215    4.6643    3.3913 H   0  0  0  0  0  0  0  0  0  0  0  0
   -2.3915    4.2710    1.3039 H   0  0  0  0  0  0  0  0  0  0  0  0
    1.7839   -1.6301    1.3729 H   0  0  0  0  0  0  0  0  0  0  0  0
    5.1512   -0.2090   -0.7296 H   0  0  0  0  0  0  0  0  0  0  0  0
    4.0061   -0.6557   -2.8971 H   0  0  0  0  0  0  0  0  0  0  0  0
  1  2  1  0
  2  3  1  0
  3  4  1  0
  4  5  2  0
  5  6  1  0
  6  7  2  0
  7  8  1  0
  8  9  2  0
  9 10  1  0
 10 11  2  0
 11 12  1  0
 12 13  1  0
 13 14  2  0
 14 15  1  0
 15 16  2  0
  2 17  1  0
 17 18  2  0
 18 19  1  0
 19 20  2  0
 20 21  1  0
 21 22  2  0
 16  4  1  0
  6 11  1  0
 16 12  1  0
 17 22  1  0
  1 23  1  0
  1 24  1  0
  1 25  1  0
  2 26  1  6
  3 27  1  0
  7 28  1  0
  8 29  1  0
  9 30  1  0
 10 31  1  0
 18 32  1  0
 20 33  1  0
 21 34  1  0
M  END
$$$$
