
     RDKit          3D

 52 55  0  0  0  0  0  0  0  0999 V2000
   -1.6711   -1.7584    1.4861 C   0  0  0  0  0  0  0  0  0  0  0  0
   -2.1147   -0.3844    1.2025 N   0  0  0  0  0  0  0  0  0  0  0  0
   -2.4389    0.3093    2.4645 C   0  0  0  0  0  0  0  0  0  0  0  0
   -2.9888    1.7089    2.1747 C   0  0  0  0  0  0  0  0  0  0  0  0
   -1.9808    2.5244    1.3601 C   0  0  0  0  0  0  0  0  0  0  0  0
   -1.5599    1.7649    0.0906 C   0  0  0  0  0  0  0  0  0  0  0  0
   -1.0608    0.3444    0.4677 C   0  0  0  0  0  0  0  0  0  0  0  0
   -0.5895    2.5900   -0.6827 N   0  0  0  0  0  0  0  0  0  0  0  0
    0.8170    2.6007   -0.2251 C   0  0  0  0  0  0  0  0  0  0  0  0
    1.7669    1.7586   -1.1064 C   0  0  0  0  0  0  0  0  0  0  0  0
    1.0496    0.7855   -1.9450 N   0  0  0  0  0  0  0  0  0  0  0  0
   -0.1446    1.2078   -2.6952 C   0  0  0  0  0  0  0  0  0  0  0  0
   -0.7186    2.5163   -2.1485 C   0  0  0  0  0  0  0  0  0  0  0  0
    1.6929   -0.4669   -2.2656 C   0  0  0  0  0  0  0  0  0  0  0  0
    2.9487   -0.5615   -2.1751 O   0  0  0  0  0  0  0  0  0  0  0  0
    0.9054   -1.6534   -2.7615 C   0  0  0  0  0  0  0  0  0  0  0  0
    1.4931   -2.9404   -2.2660 C   0  0  0  0  0  0  0  0  0  0  0  0
    2.3848   -3.7086   -3.0110 C   0  0  0  0  0  0  0  0  0  0  0  0
    2.8352   -5.0264   -2.0691 S   0  0  0  0  0  0  0  0  0  0  0  0
    1.8878   -4.5605   -0.7588 C   0  0  0  0  0  0  0  0  0  0  0  0
    1.2273   -3.4108   -1.0167 N   0  0  0  0  0  0  0  0  0  0  0  0
    1.7828   -5.2876    0.5123 C   0  0  0  0  0  0  0  0  0  0  0  0
    1.0066   -4.9111    1.6014 C   0  0  0  0  0  0  0  0  0  0  0  0
    1.1024   -5.7979    2.6805 C   0  0  0  0  0  0  0  0  0  0  0  0
    1.9511   -6.8721    2.4464 C   0  0  0  0  0  0  0  0  0  0  0  0
    2.5825   -6.7177    0.8953 S   0  0  0  0  0  0  0  0  0  0  0  0
   -1.4511   -2.2942    0.5374 H   0  0  0  0  0  0  0  0  0  0  0  0
   -2.4783   -2.3225    2.0009 H   0  0  0  0  0  0  0  0  0  0  0  0
   -0.7601   -1.7647    2.1255 H   0  0  0  0  0  0  0  0  0  0  0  0
   -1.5403    0.3874    3.1194 H   0  0  0  0  0  0  0  0  0  0  0  0
   -3.2199   -0.2576    3.0180 H   0  0  0  0  0  0  0  0  0  0  0  0
   -3.9433    1.6226    1.6103 H   0  0  0  0  0  0  0  0  0  0  0  0
   -3.1991    2.2312    3.1329 H   0  0  0  0  0  0  0  0  0  0  0  0
   -1.0939    2.7412    1.9939 H   0  0  0  0  0  0  0  0  0  0  0  0
   -2.4425    3.4951    1.0765 H   0  0  0  0  0  0  0  0  0  0  0  0
   -2.4857    1.6306   -0.5148 H   0  0  0  0  0  0  0  0  0  0  0  0
   -0.1345    0.3850    1.0802 H   0  0  0  0  0  0  0  0  0  0  0  0
   -0.8275   -0.2149   -0.4562 H   0  0  0  0  0  0  0  0  0  0  0  0
    0.9063    2.2951    0.8371 H   0  0  0  0  0  0  0  0  0  0  0  0
    1.1728    3.6533   -0.2438 H   0  0  0  0  0  0  0  0  0  0  0  0
    2.4917    1.2408   -0.4403 H   0  0  0  0  0  0  0  0  0  0  0  0
    2.3486    2.4337   -1.7714 H   0  0  0  0  0  0  0  0  0  0  0  0
    0.1157    1.3342   -3.7682 H   0  0  0  0  0  0  0  0  0  0  0  0
   -0.9402    0.4396   -2.6314 H   0  0  0  0  0  0  0  0  0  0  0  0
   -1.7807    2.6292   -2.4576 H   0  0  0  0  0  0  0  0  0  0  0  0
   -0.1681    3.3702   -2.6020 H   0  0  0  0  0  0  0  0  0  0  0  0
    0.8863   -1.6395   -3.8722 H   0  0  0  0  0  0  0  0  0  0  0  0
   -0.1406   -1.6081   -2.3984 H   0  0  0  0  0  0  0  0  0  0  0  0
    2.7319   -3.4936   -4.0129 H   0  0  0  0  0  0  0  0  0  0  0  0
    0.3886   -4.0238    1.6199 H   0  0  0  0  0  0  0  0  0  0  0  0
    0.5656   -5.6595    3.6096 H   0  0  0  0  0  0  0  0  0  0  0  0
    2.1672   -7.6699    3.1439 H   0  0  0  0  0  0  0  0  0  0  0  0
  1  2  1  0
  2  3  1  0
  3  4  1  0
  4  5  1  0
  5  6  1  0
  6  7  1  0
  6  8  1  0
  8  9  1  0
  9 10  1  0
 10 11  1  0
 11 12  1  0
 12 13  1  0
 11 14  1  0
 14 15  2  0
 14 16  1  0
 16 17  1  0
 17 18  2  0
 18 19  1  0
 19 20  1  0
 20 21  2  0
 20 22  1  0
 22 23  2  0
 23 24  1  0
 24 25  2  0
 25 26  1  0
  7  2  1  0
 13  8  1  0
 21 17  1  0
 26 22  1  0
  1 27  1  0
  1 28  1  0
  1 29  1  0
  3 30  1  0
  3 31  1  0
  4 32  1  0
  4 33  1  0
  5 34  1  0
  5 35  1  0
  6 36  1  0
  7 37  1  0
  7 38  1  0
  9 39  1  0
  9 40  1  0
 10 41  1  0
 10 42  1  0
 12 43  1  0
 12 44  1  0
 13 45  1  0
 13 46  1  0
 16 47  1  0
 16 48  1  0
 18 49  1  0
 23 50  1  0
 24 51  1  0
 25 52  1  0
M  END
$$$$
