
     RDKit          3D

 53 56  0  0  0  0  0  0  0  0999 V2000
   -5.8492    3.5812   -1.8311 C   0  0  0  0  0  0  0  0  0  0  0  0
   -5.1522    4.7773   -2.0179 C   0  0  0  0  0  0  0  0  0  0  0  0
   -3.7605    4.8074   -1.8832 C   0  0  0  0  0  0  0  0  0  0  0  0
   -3.0526    3.6354   -1.5603 C   0  0  0  0  0  0  0  0  0  0  0  0
   -3.7642    2.4356   -1.3758 C   0  0  0  0  0  0  0  0  0  0  0  0
   -5.1558    2.4116   -1.5110 C   0  0  0  0  0  0  0  0  0  0  0  0
   -1.5814    3.6614   -1.4201 C   0  0  0  0  0  0  0  0  0  0  0  0
   -0.8269    4.7642   -1.6004 N   0  0  0  0  0  0  0  0  0  0  0  0
    0.3929    4.3741   -1.3891 O   0  0  0  0  0  0  0  0  0  0  0  0
    0.4047    3.0974   -1.0945 C   0  0  0  0  0  0  0  0  0  0  0  0
   -0.8398    2.5815   -1.0956 N   0  0  0  0  0  0  0  0  0  0  0  0
    1.6586    2.3244   -0.7751 C   0  0  0  0  0  0  0  0  0  0  0  0
    1.7448    1.9708    0.7200 C   0  0  0  0  0  0  0  0  0  0  0  0
    0.8653    0.7682    1.0825 C   0  0  0  0  0  0  0  0  0  0  0  0
    1.2148   -0.3970    0.2461 N   0  0  0  0  0  0  0  0  0  0  0  0
    0.4694   -1.5999    0.6856 C   0  0  0  0  0  0  0  0  0  0  0  0
    1.2862   -2.8890    0.4212 C   0  0  0  0  0  0  0  0  0  0  0  0
    2.6576   -2.8848    1.1399 C   0  0  0  0  0  0  0  0  0  0  0  0
    2.6011   -3.1178    2.6620 C   0  0  0  0  0  0  0  0  0  0  0  0
    2.2973   -4.5832    3.0173 C   0  0  0  0  0  0  0  0  0  0  0  0
    0.7959   -4.9344    3.0371 C   0  0  0  0  0  0  0  0  0  0  0  0
   -0.0196   -4.1198    2.1255 N   0  0  0  0  0  0  0  0  0  0  0  0
    0.4611   -4.1523    0.7362 C   0  0  0  0  0  0  0  0  0  0  0  0
    0.9481   -0.0989   -1.1772 C   0  0  0  0  0  0  0  0  0  0  0  0
    1.8179    1.0710   -1.6571 C   0  0  0  0  0  0  0  0  0  0  0  0
   -6.9261    3.5600   -1.9362 H   0  0  0  0  0  0  0  0  0  0  0  0
   -5.6905    5.6823   -2.2678 H   0  0  0  0  0  0  0  0  0  0  0  0
   -3.2398    5.7450   -2.0325 H   0  0  0  0  0  0  0  0  0  0  0  0
   -3.2464    1.5167   -1.1296 H   0  0  0  0  0  0  0  0  0  0  0  0
   -5.6967    1.4850   -1.3680 H   0  0  0  0  0  0  0  0  0  0  0  0
    2.5140    2.9979   -1.0049 H   0  0  0  0  0  0  0  0  0  0  0  0
    2.8001    1.7219    0.9690 H   0  0  0  0  0  0  0  0  0  0  0  0
    1.4552    2.8470    1.3406 H   0  0  0  0  0  0  0  0  0  0  0  0
    1.0546    0.5354    2.1540 H   0  0  0  0  0  0  0  0  0  0  0  0
   -0.2123    1.0253    0.9772 H   0  0  0  0  0  0  0  0  0  0  0  0
    0.2374   -1.5499    1.7719 H   0  0  0  0  0  0  0  0  0  0  0  0
   -0.5162   -1.6664    0.1699 H   0  0  0  0  0  0  0  0  0  0  0  0
    1.5037   -2.9297   -0.6676 H   0  0  0  0  0  0  0  0  0  0  0  0
    3.1683   -1.9160    0.9522 H   0  0  0  0  0  0  0  0  0  0  0  0
    3.3083   -3.6582    0.6759 H   0  0  0  0  0  0  0  0  0  0  0  0
    1.8815   -2.4305    3.1541 H   0  0  0  0  0  0  0  0  0  0  0  0
    3.6049   -2.8719    3.0722 H   0  0  0  0  0  0  0  0  0  0  0  0
    2.8286   -5.2637    2.3167 H   0  0  0  0  0  0  0  0  0  0  0  0
    2.7132   -4.7965    4.0264 H   0  0  0  0  0  0  0  0  0  0  0  0
    0.6666   -6.0156    2.8044 H   0  0  0  0  0  0  0  0  0  0  0  0
    0.4145   -4.7765    4.0695 H   0  0  0  0  0  0  0  0  0  0  0  0
   -0.9923   -4.5069    2.1485 H   0  0  0  0  0  0  0  0  0  0  0  0
    1.0532   -5.0703    0.5187 H   0  0  0  0  0  0  0  0  0  0  0  0
   -0.4115   -4.1761    0.0443 H   0  0  0  0  0  0  0  0  0  0  0  0
    1.1980   -0.9791   -1.8065 H   0  0  0  0  0  0  0  0  0  0  0  0
   -0.1282    0.1269   -1.3426 H   0  0  0  0  0  0  0  0  0  0  0  0
    2.8824    0.7487   -1.6301 H   0  0  0  0  0  0  0  0  0  0  0  0
    1.5709    1.3116   -2.7144 H   0  0  0  0  0  0  0  0  0  0  0  0
  1  2  2  0
  2  3  1  0
  3  4  2  0
  4  5  1  0
  5  6  2  0
  4  7  1  0
  7  8  2  0
  8  9  1  0
  9 10  1  0
 10 11  2  0
 10 12  1  0
 12 13  1  0
 13 14  1  0
 14 15  1  0
 15 16  1  0
 16 17  1  0
 17 18  1  0
 18 19  1  0
 19 20  1  0
 20 21  1  0
 21 22  1  0
 22 23  1  0
 15 24  1  0
 24 25  1  0
  1  6  1  0
 11  7  1  0
 25 12  1  0
 23 17  1  0
  1 26  1  0
  2 27  1  0
  3 28  1  0
  5 29  1  0
  6 30  1  0
 12 31  1  0
 13 32  1  0
 13 33  1  0
 14 34  1  0
 14 35  1  0
 16 36  1  0
 16 37  1  0
 17 38  1  0
 18 39  1  0
 18 40  1  0
 19 41  1  0
 19 42  1  0
 20 43  1  0
 20 44  1  0
 21 45  1  0
 21 46  1  0
 22 47  1  0
 23 48  1  0
 23 49  1  0
 24 50  1  0
 24 51  1  0
 25 52  1  0
 25 53  1  0
M  END
$$$$
