
     RDKit          3D

  0  0  0  0  0  0  0  0  0  0999 V3000
M  V30 BEGIN CTAB
M  V30 COUNTS 39 41 0 0 0
M  V30 BEGIN ATOM
M  V30 1 O 0.136090 -2.455250 -0.621765 0
M  V30 2 C -0.340966 -2.056212 0.475794 0
M  V30 3 N 0.211241 -0.895835 1.120314 0
M  V30 4 C 1.277942 -0.089951 0.516693 0 CFG=2
M  V30 5 C 2.252556 0.371722 1.609212 0
M  V30 6 C 3.432299 1.132090 0.999675 0
M  V30 7 C 2.965602 2.200677 0.055329 0
M  V30 8 O 3.717057 3.181547 -0.189734 0
M  V30 9 N 1.713535 2.077425 -0.632814 0
M  V30 10 C 0.671108 1.138002 -0.202619 0 CFG=1
M  V30 11 C -0.161947 0.700293 -1.389560 0
M  V30 12 C -1.564329 0.658222 -1.290899 0
M  V30 13 C -2.334318 0.193914 -2.361361 0
M  V30 14 C -1.713464 -0.236043 -3.536621 0
M  V30 15 C -0.320737 -0.206351 -3.642451 0
M  V30 16 C 0.453986 0.254177 -2.573734 0
M  V30 17 C -1.501016 -2.765523 1.056382 0
M  V30 18 C -2.481311 -3.307805 0.210173 0
M  V30 19 C -3.585428 -3.969699 0.748531 0
M  V30 20 C -3.698565 -4.095129 2.132930 0
M  V30 21 N -2.735618 -3.582678 2.943153 0
M  V30 22 C -1.651160 -2.928330 2.446986 0
M  V30 23 F -0.703223 -2.483851 3.309164 0
M  V30 24 H -0.301326 -0.485790 1.933553 0
M  V30 25 H 1.854564 -0.704349 -0.211437 0
M  V30 26 H 2.639942 -0.512440 2.160946 0
M  V30 27 H 1.725472 1.026585 2.338504 0
M  V30 28 H 4.034116 1.587156 1.815795 0
M  V30 29 H 4.082135 0.423890 0.441895 0
M  V30 30 H 1.451906 2.831939 -1.307830 0
M  V30 31 H 0.021484 1.679703 0.521475 0
M  V30 32 H -2.061184 0.971614 -0.381197 0
M  V30 33 H -3.412880 0.161845 -2.277236 0
M  V30 34 H -2.311330 -0.597156 -4.363379 0
M  V30 35 H 0.159444 -0.547147 -4.550566 0
M  V30 36 H 1.533072 0.254214 -2.664554 0
M  V30 37 H -2.400658 -3.203972 -0.865192 0
M  V30 38 H -4.347257 -4.380250 0.098514 0
M  V30 39 H -4.548673 -4.606641 2.564137 0
M  V30 END ATOM
M  V30 BEGIN BOND
M  V30 1 2 1 2
M  V30 2 1 2 3
M  V30 3 1 3 4
M  V30 4 1 4 5
M  V30 5 1 5 6
M  V30 6 1 6 7
M  V30 7 2 7 8
M  V30 8 1 7 9
M  V30 9 1 9 10
M  V30 10 1 10 11
M  V30 11 2 11 12
M  V30 12 1 12 13
M  V30 13 2 13 14
M  V30 14 1 14 15
M  V30 15 2 15 16
M  V30 16 1 2 17
M  V30 17 2 17 18
M  V30 18 1 18 19
M  V30 19 2 19 20
M  V30 20 1 20 21
M  V30 21 2 21 22
M  V30 22 1 22 23
M  V30 23 1 10 4
M  V30 24 1 11 16
M  V30 25 1 17 22
M  V30 26 1 3 24
M  V30 27 1 4 25 CFG=3
M  V30 28 1 5 26
M  V30 29 1 5 27
M  V30 30 1 6 28
M  V30 31 1 6 29
M  V30 32 1 9 30
M  V30 33 1 10 31 CFG=1
M  V30 34 1 12 32
M  V30 35 1 13 33
M  V30 36 1 14 34
M  V30 37 1 15 35
M  V30 38 1 16 36
M  V30 39 1 18 37
M  V30 40 1 19 38
M  V30 41 1 20 39
M  V30 END BOND
M  V30 BEGIN COLLECTION
M  V30 MDLV30/STERAC1 ATOMS=(2 4 10)
M  V30 END COLLECTION
M  V30 END CTAB
M  END
>  <_CXSMILES_Data>  (1) 
|&1:3,9,r|

$$$$
