
     RDKit          3D

  0  0  0  0  0  0  0  0  0  0999 V3000
M  V30 BEGIN CTAB
M  V30 COUNTS 55 59 0 0 0
M  V30 BEGIN ATOM
M  V30 1 C -1.387082 -5.987929 2.132583 0
M  V30 2 N -1.600416 -4.640760 1.581509 0
M  V30 3 C -2.724005 -4.617411 0.630942 0
M  V30 4 C -2.310321 -3.747324 -0.538639 0
M  V30 5 C -0.804249 -3.918542 -0.598235 0 CFG=2
M  V30 6 C -0.408245 -4.137629 0.871011 0 CFG=1
M  V30 7 C 0.029955 -2.817443 1.524436 0
M  V30 8 C 1.234773 -2.193144 0.805050 0
M  V30 9 C 1.215323 -2.408024 -0.719367 0
M  V30 10 N -0.129442 -2.753703 -1.200727 0
M  V30 11 C -0.597280 -2.241852 -2.466045 0
M  V30 12 O -0.979935 -3.051590 -3.353822 0
M  V30 13 C -0.658062 -0.757816 -2.770210 0
M  V30 14 C 0.605343 -0.262062 -3.482389 0
M  V30 15 C 1.119491 0.931661 -2.687315 0
M  V30 16 N 0.236162 1.097424 -1.539213 0
M  V30 17 C -0.852567 0.130796 -1.534191 0
M  V30 18 C 0.438409 2.118273 -0.523745 0
M  V30 19 C 1.510874 3.027727 -0.640435 0
M  V30 20 C 1.729967 4.013597 0.323649 0
M  V30 21 C 0.887587 4.120234 1.437168 0
M  V30 22 C -0.182796 3.225293 1.566772 0
M  V30 23 C -0.413313 2.238410 0.602460 0
M  V30 24 F -1.475168 1.417904 0.790593 0
M  V30 25 C 1.122750 5.162546 2.458307 0
M  V30 26 N 2.089165 6.101209 2.382149 0
M  V30 27 N 1.951904 6.822457 3.482459 0
M  V30 28 N 0.947076 6.340452 4.192989 0
M  V30 29 N 0.399716 5.301224 3.587407 0
M  V30 30 H -2.311769 -6.342174 2.636715 0
M  V30 31 H -0.579282 -5.957399 2.894654 0
M  V30 32 H -1.107067 -6.710615 1.333395 0
M  V30 33 H -3.624713 -4.197116 1.125746 0
M  V30 34 H -2.971884 -5.634643 0.247780 0
M  V30 35 H -2.800001 -4.072807 -1.481763 0
M  V30 36 H -2.573665 -2.686995 -0.326048 0
M  V30 37 H -0.561409 -4.833584 -1.184736 0
M  V30 38 H 0.448918 -4.851155 0.916159 0
M  V30 39 H -0.817068 -2.096075 1.505325 0
M  V30 40 H 0.291427 -2.996891 2.589823 0
M  V30 41 H 1.250633 -1.102792 1.025800 0
M  V30 42 H 2.172537 -2.626404 1.216492 0
M  V30 43 H 1.907657 -3.236750 -0.983904 0
M  V30 44 H 1.601467 -1.494173 -1.210448 0
M  V30 45 H -1.526332 -0.588927 -3.447594 0
M  V30 46 H 1.390311 -1.048137 -3.543435 0
M  V30 47 H 0.361033 0.050127 -4.521755 0
M  V30 48 H 2.158537 0.738901 -2.342150 0
M  V30 49 H 1.096218 1.848012 -3.316380 0
M  V30 50 H -0.836122 -0.450004 -0.590675 0
M  V30 51 H -1.824002 0.666891 -1.606378 0
M  V30 52 H 2.190255 2.987420 -1.479970 0
M  V30 53 H 2.564273 4.691875 0.196777 0
M  V30 54 H -0.849884 3.290096 2.417504 0
M  V30 55 H 0.628277 6.728629 5.107667 0
M  V30 END ATOM
M  V30 BEGIN BOND
M  V30 1 1 1 2
M  V30 2 1 2 3
M  V30 3 1 3 4
M  V30 4 1 4 5
M  V30 5 1 5 6
M  V30 6 1 6 7
M  V30 7 1 7 8
M  V30 8 1 8 9
M  V30 9 1 9 10
M  V30 10 1 10 11
M  V30 11 2 11 12
M  V30 12 1 11 13
M  V30 13 1 13 14
M  V30 14 1 14 15
M  V30 15 1 15 16
M  V30 16 1 16 17
M  V30 17 1 16 18
M  V30 18 2 18 19
M  V30 19 1 19 20
M  V30 20 2 20 21
M  V30 21 1 21 22
M  V30 22 2 22 23
M  V30 23 1 23 24
M  V30 24 1 21 25
M  V30 25 1 25 26
M  V30 26 2 26 27
M  V30 27 1 27 28
M  V30 28 1 28 29
M  V30 29 1 6 2
M  V30 30 1 10 5
M  V30 31 1 17 13
M  V30 32 1 23 18
M  V30 33 2 25 29
M  V30 34 1 1 30
M  V30 35 1 1 31
M  V30 36 1 1 32
M  V30 37 1 3 33
M  V30 38 1 3 34
M  V30 39 1 4 35
M  V30 40 1 4 36
M  V30 41 1 5 37 CFG=3
M  V30 42 1 6 38 CFG=3
M  V30 43 1 7 39
M  V30 44 1 7 40
M  V30 45 1 8 41
M  V30 46 1 8 42
M  V30 47 1 9 43
M  V30 48 1 9 44
M  V30 49 1 13 45
M  V30 50 1 14 46
M  V30 51 1 14 47
M  V30 52 1 15 48
M  V30 53 1 15 49
M  V30 54 1 17 50
M  V30 55 1 17 51
M  V30 56 1 19 52
M  V30 57 1 20 53
M  V30 58 1 22 54
M  V30 59 1 28 55
M  V30 END BOND
M  V30 BEGIN COLLECTION
M  V30 MDLV30/STERAC1 ATOMS=(2 5 6)
M  V30 END COLLECTION
M  V30 END CTAB
M  END
>  <_CXSMILES_Data>  (1) 
|&1:4,5,r|

$$$$
