
     RDKit          3D

 50 53  0  0  0  0  0  0  0  0999 V2000
   -0.0827    1.9261   -1.9217 O   0  0  0  0  0  0  0  0  0  0  0  0
   -0.0120    1.0013   -1.0666 C   0  0  0  0  0  0  0  0  0  0  0  0
   -0.7996    1.0735    0.1305 N   0  0  0  0  0  0  0  0  0  0  0  0
   -1.5119    2.2973    0.4999 C   0  0  0  0  0  0  0  0  0  0  0  0
   -2.2365    2.1337    1.8531 C   0  0  0  0  0  0  0  0  0  0  0  0
   -3.2030    1.0319    1.7479 N   0  0  0  0  0  0  0  0  0  0  0  0
   -4.5496    1.6169    1.7412 C   0  0  0  0  0  0  0  0  0  0  0  0
   -4.4132    3.1305    1.6991 C   0  0  0  0  0  0  0  0  0  0  0  0
   -3.0309    3.3746    2.2829 C   0  0  0  0  0  0  0  0  0  0  0  0
   -2.3130    4.7286    2.0197 C   0  0  0  0  0  0  0  0  0  0  0  0
   -2.5225    5.4750    0.7072 C   0  0  0  0  0  0  0  0  0  0  0  0
   -3.1988    5.9667    1.9800 C   0  0  0  0  0  0  0  0  0  0  0  0
    0.8462   -0.1724   -1.3377 C   0  0  0  0  0  0  0  0  0  0  0  0
    0.8354   -0.7362   -2.6222 C   0  0  0  0  0  0  0  0  0  0  0  0
    1.6172   -1.8547   -2.9177 C   0  0  0  0  0  0  0  0  0  0  0  0
    2.4350   -2.4389   -1.9347 C   0  0  0  0  0  0  0  0  0  0  0  0
    2.4630   -1.8575   -0.6530 C   0  0  0  0  0  0  0  0  0  0  0  0
    1.6864   -0.7319   -0.3525 C   0  0  0  0  0  0  0  0  0  0  0  0
    1.8697   -0.0091    1.2442 Cl  0  0  0  0  0  0  0  0  0  0  0  0
    3.2446   -3.5985   -2.2375 N   0  0  0  0  0  0  0  0  0  0  0  0
    4.2241   -4.1824   -1.3225 C   0  0  0  0  0  0  0  0  0  0  0  0
    4.9898   -5.3039   -2.0590 C   0  0  0  0  0  0  0  0  0  0  0  0
    4.1083   -5.9015   -3.1602 C   0  0  0  0  0  0  0  0  0  0  0  0
    3.0373   -4.5862   -3.6282 S   0  0  0  0  0  0  0  0  0  0  0  0
    1.6158   -5.0539   -3.7725 O   0  0  0  0  0  0  0  0  0  0  0  0
    3.5220   -3.8950   -4.8714 O   0  0  0  0  0  0  0  0  0  0  0  0
   -0.8675    0.2262    0.7389 H   0  0  0  0  0  0  0  0  0  0  0  0
   -2.2480    2.5467   -0.2953 H   0  0  0  0  0  0  0  0  0  0  0  0
   -0.7706    3.1217    0.5706 H   0  0  0  0  0  0  0  0  0  0  0  0
   -1.4692    1.9049    2.6295 H   0  0  0  0  0  0  0  0  0  0  0  0
   -3.1084    0.4202    2.5934 H   0  0  0  0  0  0  0  0  0  0  0  0
   -5.1111    1.2514    0.8548 H   0  0  0  0  0  0  0  0  0  0  0  0
   -5.1070    1.3179    2.6585 H   0  0  0  0  0  0  0  0  0  0  0  0
   -4.4912    3.4563    0.6439 H   0  0  0  0  0  0  0  0  0  0  0  0
   -5.2085    3.6202    2.3021 H   0  0  0  0  0  0  0  0  0  0  0  0
   -3.1443    3.3129    3.3897 H   0  0  0  0  0  0  0  0  0  0  0  0
   -1.3288    4.8999    2.5069 H   0  0  0  0  0  0  0  0  0  0  0  0
   -1.6609    6.1025    0.3950 H   0  0  0  0  0  0  0  0  0  0  0  0
   -3.2170    5.0479   -0.0396 H   0  0  0  0  0  0  0  0  0  0  0  0
   -2.7343    6.8837    2.4014 H   0  0  0  0  0  0  0  0  0  0  0  0
   -4.2975    5.8126    1.9852 H   0  0  0  0  0  0  0  0  0  0  0  0
    0.2091   -0.3150   -3.3999 H   0  0  0  0  0  0  0  0  0  0  0  0
    1.5801   -2.2527   -3.9214 H   0  0  0  0  0  0  0  0  0  0  0  0
    3.0952   -2.2681    0.1218 H   0  0  0  0  0  0  0  0  0  0  0  0
    4.9421   -3.4064   -0.9806 H   0  0  0  0  0  0  0  0  0  0  0  0
    3.6942   -4.6087   -0.4435 H   0  0  0  0  0  0  0  0  0  0  0  0
    5.8975   -4.8659   -2.5297 H   0  0  0  0  0  0  0  0  0  0  0  0
    5.3150   -6.0913   -1.3454 H   0  0  0  0  0  0  0  0  0  0  0  0
    4.7154   -6.2509   -4.0223 H   0  0  0  0  0  0  0  0  0  0  0  0
    3.5050   -6.7403   -2.7512 H   0  0  0  0  0  0  0  0  0  0  0  0
  1  2  2  0
  2  3  1  0
  3  4  1  0
  4  5  1  0
  5  6  1  0
  6  7  1  0
  7  8  1  0
  8  9  1  0
  9 10  1  0
 10 11  1  0
 11 12  1  0
  2 13  1  0
 13 14  2  0
 14 15  1  0
 15 16  2  0
 16 17  1  0
 17 18  2  0
 18 19  1  0
 16 20  1  0
 20 21  1  0
 21 22  1  0
 22 23  1  0
 23 24  1  0
 24 25  2  0
 24 26  2  0
  9  5  1  0
 12 10  1  0
 13 18  1  0
 24 20  1  0
  3 27  1  0
  4 28  1  0
  4 29  1  0
  5 30  1  0
  6 31  1  0
  7 32  1  0
  7 33  1  0
  8 34  1  0
  8 35  1  0
  9 36  1  0
 10 37  1  0
 11 38  1  0
 11 39  1  0
 12 40  1  0
 12 41  1  0
 14 42  1  0
 15 43  1  0
 17 44  1  0
 21 45  1  0
 21 46  1  0
 22 47  1  0
 22 48  1  0
 23 49  1  0
 23 50  1  0
M  END
$$$$
