
     RDKit          3D

 51 53  0  0  0  0  0  0  0  0999 V2000
   -0.5270   -5.0965   -3.1401 C   0  0  0  0  0  0  0  0  0  0  0  0
   -1.6669   -4.1402   -3.2871 C   0  0  0  0  0  0  0  0  0  0  0  0
   -2.7680   -4.3886   -2.7188 O   0  0  0  0  0  0  0  0  0  0  0  0
   -1.4957   -2.9622   -4.0245 O   0  0  0  0  0  0  0  0  0  0  0  0
   -2.4520   -1.9051   -4.0137 C   0  0  0  0  0  0  0  0  0  0  0  0
   -1.9358   -0.7523   -4.8275 C   0  0  0  0  0  0  0  0  0  0  0  0
   -2.3585   -0.6152   -6.0079 O   0  0  0  0  0  0  0  0  0  0  0  0
   -0.9456    0.1606   -4.2995 N   0  0  0  0  0  0  0  0  0  0  0  0
   -0.8069    1.5118   -4.8778 C   0  0  0  0  0  0  0  0  0  0  0  0
    0.6755    1.8702   -5.0469 C   0  0  0  0  0  0  0  0  0  0  0  0
    1.3931    1.5804   -3.8134 N   0  0  0  0  0  0  0  0  0  0  0  0
    2.5479    2.1243   -3.4595 N   0  0  0  0  0  0  0  0  0  0  0  0
    2.9223    1.5455   -2.2963 C   0  0  0  0  0  0  0  0  0  0  0  0
    1.9751    0.6022   -1.9260 C   0  0  0  0  0  0  0  0  0  0  0  0
    1.0228    0.6487   -2.9192 C   0  0  0  0  0  0  0  0  0  0  0  0
   -0.2341   -0.1616   -3.0462 C   0  0  0  0  0  0  0  0  0  0  0  0
    1.9960   -0.4323   -0.5047 S   0  0  0  0  0  0  0  0  0  0  0  0
    1.9818   -2.1422   -1.0112 C   0  0  0  0  0  0  0  0  0  0  0  0
    3.2467   -0.1679    0.2836 O   0  0  0  0  0  0  0  0  0  0  0  0
    0.7396   -0.0984    0.3827 N   0  0  0  0  0  0  0  0  0  0  0  0
    0.4236   -0.7851    1.5985 C   0  0  0  0  0  0  0  0  0  0  0  0
    1.1138   -1.7705    1.9840 O   0  0  0  0  0  0  0  0  0  0  0  0
   -0.7926   -0.3750    2.3796 C   0  0  0  0  0  0  0  0  0  0  0  0
   -0.8056    1.1108    2.7588 C   0  0  0  0  0  0  0  0  0  0  0  0
   -0.6035    0.0555    3.8406 C   0  0  0  0  0  0  0  0  0  0  0  0
   -1.8005   -0.2037    4.7594 C   0  0  0  0  0  0  0  0  0  0  0  0
    0.7960   -0.0039    4.4722 C   0  0  0  0  0  0  0  0  0  0  0  0
   -0.8836   -6.1321   -3.3090 H   0  0  0  0  0  0  0  0  0  0  0  0
    0.2734   -4.8640   -3.8836 H   0  0  0  0  0  0  0  0  0  0  0  0
   -0.1044   -5.0174   -2.1114 H   0  0  0  0  0  0  0  0  0  0  0  0
   -2.6354   -1.5754   -2.9690 H   0  0  0  0  0  0  0  0  0  0  0  0
   -3.4162   -2.2656   -4.4381 H   0  0  0  0  0  0  0  0  0  0  0  0
   -1.2862    2.2470   -4.1935 H   0  0  0  0  0  0  0  0  0  0  0  0
   -1.3095    1.5926   -5.8670 H   0  0  0  0  0  0  0  0  0  0  0  0
    0.7737    2.9473   -5.2999 H   0  0  0  0  0  0  0  0  0  0  0  0
    1.1125    1.2662   -5.8693 H   0  0  0  0  0  0  0  0  0  0  0  0
    3.8290    1.7908   -1.7592 H   0  0  0  0  0  0  0  0  0  0  0  0
    0.0607   -1.2313   -3.0475 H   0  0  0  0  0  0  0  0  0  0  0  0
   -0.8976    0.0400   -2.1757 H   0  0  0  0  0  0  0  0  0  0  0  0
    0.9385   -2.4678   -1.2040 H   0  0  0  0  0  0  0  0  0  0  0  0
    2.5833   -2.2656   -1.9371 H   0  0  0  0  0  0  0  0  0  0  0  0
    2.4156   -2.7746   -0.2090 H   0  0  0  0  0  0  0  0  0  0  0  0
   -1.7821   -0.7679    2.0738 H   0  0  0  0  0  0  0  0  0  0  0  0
    0.1048    1.6910    2.4887 H   0  0  0  0  0  0  0  0  0  0  0  0
   -1.8146    1.5724    2.7413 H   0  0  0  0  0  0  0  0  0  0  0  0
   -1.7793    0.5063    5.6130 H   0  0  0  0  0  0  0  0  0  0  0  0
   -1.7396   -1.2372    5.1563 H   0  0  0  0  0  0  0  0  0  0  0  0
   -2.7746   -0.0860    4.2256 H   0  0  0  0  0  0  0  0  0  0  0  0
    1.0175   -1.0477    4.7835 H   0  0  0  0  0  0  0  0  0  0  0  0
    1.5947    0.3366    3.7748 H   0  0  0  0  0  0  0  0  0  0  0  0
    0.8242    0.6500    5.3744 H   0  0  0  0  0  0  0  0  0  0  0  0
  1  2  1  0
  2  3  2  0
  2  4  1  0
  4  5  1  0
  5  6  1  0
  6  7  2  0
  6  8  1  0
  8  9  1  0
  9 10  1  0
 10 11  1  0
 11 12  1  0
 12 13  2  0
 13 14  1  0
 14 15  2  0
 15 16  1  0
 14 17  1  0
 17 18  1  0
 17 19  2  0
 17 20  2  0
 20 21  1  0
 21 22  2  0
 21 23  1  0
 23 24  1  0
 24 25  1  0
 25 26  1  0
 25 27  1  0
 16  8  1  0
 15 11  1  0
 25 23  1  0
  1 28  1  0
  1 29  1  0
  1 30  1  0
  5 31  1  0
  5 32  1  0
  9 33  1  0
  9 34  1  0
 10 35  1  0
 10 36  1  0
 13 37  1  0
 16 38  1  0
 16 39  1  0
 18 40  1  0
 18 41  1  0
 18 42  1  0
 23 43  1  0
 24 44  1  0
 24 45  1  0
 26 46  1  0
 26 47  1  0
 26 48  1  0
 27 49  1  0
 27 50  1  0
 27 51  1  0
M  END
$$$$
