
     RDKit          3D

 47 50  0  0  0  0  0  0  0  0999 V2000
    0.8451   -2.7638   -0.9156 O   0  0  0  0  0  0  0  0  0  0  0  0
    0.2166   -1.9024   -0.2419 C   0  0  0  0  0  0  0  0  0  0  0  0
    0.2726   -0.5145   -0.6169 N   0  0  0  0  0  0  0  0  0  0  0  0
    0.7797   -0.0406   -1.8768 C   0  0  0  0  0  0  0  0  0  0  0  0
    0.5971   -0.7723   -3.0636 C   0  0  0  0  0  0  0  0  0  0  0  0
    1.0788   -0.2775   -4.2777 C   0  0  0  0  0  0  0  0  0  0  0  0
    1.7341    0.9544   -4.3241 C   0  0  0  0  0  0  0  0  0  0  0  0
    1.9078    1.7104   -3.1521 C   0  0  0  0  0  0  0  0  0  0  0  0
    1.4150    1.2096   -1.9351 C   0  0  0  0  0  0  0  0  0  0  0  0
    2.5881    3.0614   -3.1978 C   0  0  0  0  0  0  0  0  0  0  0  0
    1.7637    4.1048   -3.9965 C   0  0  0  0  0  0  0  0  0  0  0  0
    2.6283    4.5586   -5.1845 C   0  0  0  0  0  0  0  0  0  0  0  0
    3.8914    3.8203   -4.9901 C   0  0  0  0  0  0  0  0  0  0  0  0
    4.8949    3.9329   -5.7420 O   0  0  0  0  0  0  0  0  0  0  0  0
    3.8690    2.9612   -3.8733 N   0  0  0  0  0  0  0  0  0  0  0  0
   -0.5351   -2.3208    0.9617 C   0  0  0  0  0  0  0  0  0  0  0  0
   -0.6027   -3.6710    1.3428 C   0  0  0  0  0  0  0  0  0  0  0  0
   -1.3160   -4.0277    2.4890 C   0  0  0  0  0  0  0  0  0  0  0  0
   -1.9451   -3.0475    3.2596 C   0  0  0  0  0  0  0  0  0  0  0  0
   -1.8741   -1.7108    2.8365 C   0  0  0  0  0  0  0  0  0  0  0  0
   -1.1773   -1.3856    1.7154 N   0  0  0  0  0  0  0  0  0  0  0  0
   -2.6641   -3.4335    4.4002 O   0  0  0  0  0  0  0  0  0  0  0  0
   -2.8332   -2.6545    5.5546 C   0  0  0  0  0  0  0  0  0  0  0  0
   -3.9960   -2.8231    6.3166 C   0  0  0  0  0  0  0  0  0  0  0  0
   -4.1912   -2.0777    7.4835 C   0  0  0  0  0  0  0  0  0  0  0  0
   -3.2186   -1.1659    7.9028 C   0  0  0  0  0  0  0  0  0  0  0  0
   -2.0463   -1.0049    7.1596 C   0  0  0  0  0  0  0  0  0  0  0  0
   -1.8486   -1.7488    5.9922 C   0  0  0  0  0  0  0  0  0  0  0  0
    0.0235    0.2015    0.1027 H   0  0  0  0  0  0  0  0  0  0  0  0
    0.0597   -1.7112   -3.0605 H   0  0  0  0  0  0  0  0  0  0  0  0
    0.9329   -0.8452   -5.1876 H   0  0  0  0  0  0  0  0  0  0  0  0
    2.0937    1.3261   -5.2756 H   0  0  0  0  0  0  0  0  0  0  0  0
    1.5328    1.7868   -1.0263 H   0  0  0  0  0  0  0  0  0  0  0  0
    2.7662    3.4445   -2.1683 H   0  0  0  0  0  0  0  0  0  0  0  0
    0.7998    3.6873   -4.3638 H   0  0  0  0  0  0  0  0  0  0  0  0
    1.5311    4.9766   -3.3469 H   0  0  0  0  0  0  0  0  0  0  0  0
    2.1626    4.2682   -6.1510 H   0  0  0  0  0  0  0  0  0  0  0  0
    2.8121    5.6541   -5.1538 H   0  0  0  0  0  0  0  0  0  0  0  0
    4.6682    2.3655   -3.5608 H   0  0  0  0  0  0  0  0  0  0  0  0
   -0.1067   -4.4412    0.7664 H   0  0  0  0  0  0  0  0  0  0  0  0
   -1.3704   -5.0672    2.7858 H   0  0  0  0  0  0  0  0  0  0  0  0
   -2.3823   -0.9299    3.3859 H   0  0  0  0  0  0  0  0  0  0  0  0
   -4.7526   -3.5293    5.9992 H   0  0  0  0  0  0  0  0  0  0  0  0
   -5.0957   -2.2085    8.0635 H   0  0  0  0  0  0  0  0  0  0  0  0
   -3.3694   -0.5910    8.8074 H   0  0  0  0  0  0  0  0  0  0  0  0
   -1.2875   -0.3086    7.4921 H   0  0  0  0  0  0  0  0  0  0  0  0
   -0.9226   -1.6333    5.4451 H   0  0  0  0  0  0  0  0  0  0  0  0
  1  2  2  0
  2  3  1  0
  3  4  1  0
  4  5  2  0
  5  6  1  0
  6  7  2  0
  7  8  1  0
  8  9  2  0
  8 10  1  0
 10 11  1  0
 11 12  1  0
 12 13  1  0
 13 14  2  0
 13 15  1  0
  2 16  1  0
 16 17  2  0
 17 18  1  0
 18 19  2  0
 19 20  1  0
 20 21  2  0
 19 22  1  0
 22 23  1  0
 23 24  2  0
 24 25  1  0
 25 26  2  0
 26 27  1  0
 27 28  2  0
  4  9  1  0
 15 10  1  0
 16 21  1  0
 23 28  1  0
  3 29  1  0
  5 30  1  0
  6 31  1  0
  7 32  1  0
  9 33  1  0
 10 34  1  0
 11 35  1  0
 11 36  1  0
 12 37  1  0
 12 38  1  0
 15 39  1  0
 17 40  1  0
 18 41  1  0
 20 42  1  0
 24 43  1  0
 25 44  1  0
 26 45  1  0
 27 46  1  0
 28 47  1  0
M  END
$$$$
