
     RDKit          3D

 30 32  0  0  0  0  0  0  0  0999 V2000
   -4.5422    0.1360    3.1194 N   0  0  0  0  0  0  0  0  0  0  0  0
   -3.7953   -0.5129    2.5193 C   0  0  0  0  0  0  0  0  0  0  0  0
   -2.8663   -1.3199    1.7731 C   0  0  0  0  0  0  0  0  0  0  0  0
   -3.2645   -2.4389    1.0300 C   0  0  0  0  0  0  0  0  0  0  0  0
   -2.2110   -3.0867    0.3966 C   0  0  0  0  0  0  0  0  0  0  0  0
   -0.7872   -2.2684    0.7627 S   0  0  0  0  0  0  0  0  0  0  0  0
   -1.4964   -1.0836    1.7205 C   0  0  0  0  0  0  0  0  0  0  0  0
   -0.6159    0.2082    2.5266 S   0  0  0  0  0  0  0  0  0  0  0  0
   -1.4191    1.4786    2.5254 O   0  0  0  0  0  0  0  0  0  0  0  0
   -0.3475   -0.2036    3.9463 O   0  0  0  0  0  0  0  0  0  0  0  0
    0.8958    0.4891    1.7213 N   0  0  0  0  0  0  0  0  0  0  0  0
    1.0120    0.8126    0.3223 C   0  0  0  0  0  0  0  0  0  0  0  0
   -0.1172    1.1289   -0.4696 C   0  0  0  0  0  0  0  0  0  0  0  0
    0.0250    1.4399   -1.8348 C   0  0  0  0  0  0  0  0  0  0  0  0
    1.2910    1.4443   -2.4353 C   0  0  0  0  0  0  0  0  0  0  0  0
    2.3998    1.1357   -1.6512 C   0  0  0  0  0  0  0  0  0  0  0  0
    3.8301    1.0701   -2.0795 C   0  0  0  0  0  0  0  0  0  0  0  0
    4.4659    0.6772   -0.7823 C   0  0  0  0  0  0  0  0  0  0  0  0
    5.7009    0.4867   -0.6303 O   0  0  0  0  0  0  0  0  0  0  0  0
    3.5264    0.5342    0.2768 N   0  0  0  0  0  0  0  0  0  0  0  0
    2.2676    0.8287   -0.3096 C   0  0  0  0  0  0  0  0  0  0  0  0
   -4.2913   -2.7737    0.9562 H   0  0  0  0  0  0  0  0  0  0  0  0
   -2.2943   -3.9692   -0.2229 H   0  0  0  0  0  0  0  0  0  0  0  0
    1.7549    0.3770    2.3012 H   0  0  0  0  0  0  0  0  0  0  0  0
   -1.1111    1.1413   -0.0475 H   0  0  0  0  0  0  0  0  0  0  0  0
   -0.8498    1.6778   -2.4259 H   0  0  0  0  0  0  0  0  0  0  0  0
    1.4035    1.6811   -3.4854 H   0  0  0  0  0  0  0  0  0  0  0  0
    4.1921    2.0643   -2.4163 H   0  0  0  0  0  0  0  0  0  0  0  0
    3.9803    0.2855   -2.8508 H   0  0  0  0  0  0  0  0  0  0  0  0
    3.7374    0.2479    1.2575 H   0  0  0  0  0  0  0  0  0  0  0  0
  1  2  3  0
  2  3  1  0
  3  4  1  0
  4  5  2  0
  5  6  1  0
  6  7  1  0
  7  8  1  0
  8  9  2  0
  8 10  2  0
  8 11  1  0
 11 12  1  0
 12 13  2  0
 13 14  1  0
 14 15  2  0
 15 16  1  0
 16 17  1  0
 17 18  1  0
 18 19  2  0
 18 20  1  0
 20 21  1  0
  3  7  2  0
 12 21  1  0
 21 16  2  0
  4 22  1  0
  5 23  1  0
 11 24  1  0
 13 25  1  0
 14 26  1  0
 15 27  1  0
 17 28  1  0
 17 29  1  0
 20 30  1  0
M  END
$$$$
