
     RDKit          3D

 42 45  0  0  0  0  0  0  0  0999 V2000
   -1.5781   -1.2410   -1.0427 O   0  0  0  0  0  0  0  0  0  0  0  0
   -0.7823   -0.3452   -0.6487 C   0  0  0  0  0  0  0  0  0  0  0  0
   -0.9953    0.2940    0.6204 N   0  0  0  0  0  0  0  0  0  0  0  0
   -1.9803   -0.2070    1.5841 C   0  0  0  0  0  0  0  0  0  0  0  0
   -1.5115   -1.5186    2.1720 C   0  0  0  0  0  0  0  0  0  0  0  0
   -2.3842   -2.6152    2.2552 C   0  0  0  0  0  0  0  0  0  0  0  0
   -1.9481   -3.8157    2.8178 C   0  0  0  0  0  0  0  0  0  0  0  0
   -0.6421   -3.9099    3.3015 C   0  0  0  0  0  0  0  0  0  0  0  0
    0.1911   -2.8384    3.2267 N   0  0  0  0  0  0  0  0  0  0  0  0
   -0.2090   -1.6581    2.6831 C   0  0  0  0  0  0  0  0  0  0  0  0
   -2.1747    0.8163    2.7193 C   0  0  0  0  0  0  0  0  0  0  0  0
   -3.1935    1.9111    2.4398 C   0  0  0  0  0  0  0  0  0  0  0  0
   -3.5317    0.7870    3.4070 C   0  0  0  0  0  0  0  0  0  0  0  0
    0.3522    0.0299   -1.5111 C   0  0  0  0  0  0  0  0  0  0  0  0
    1.3755    0.9105   -1.2042 C   0  0  0  0  0  0  0  0  0  0  0  0
    2.1901    0.8941   -2.3239 C   0  0  0  0  0  0  0  0  0  0  0  0
    1.6591    0.0442   -3.2275 N   0  0  0  0  0  0  0  0  0  0  0  0
    0.5494   -0.4847   -2.7403 N   0  0  0  0  0  0  0  0  0  0  0  0
    3.4470    1.6626   -2.5138 C   0  0  0  0  0  0  0  0  0  0  0  0
    3.9986    1.8342   -3.7986 C   0  0  0  0  0  0  0  0  0  0  0  0
    5.1875    2.5508   -3.9708 C   0  0  0  0  0  0  0  0  0  0  0  0
    5.8379    3.1071   -2.8682 C   0  0  0  0  0  0  0  0  0  0  0  0
    5.2994    2.9503   -1.5900 C   0  0  0  0  0  0  0  0  0  0  0  0
    4.1118    2.2339   -1.4108 C   0  0  0  0  0  0  0  0  0  0  0  0
   -0.4254    1.1327    0.8707 H   0  0  0  0  0  0  0  0  0  0  0  0
   -2.9431   -0.3607    1.0449 H   0  0  0  0  0  0  0  0  0  0  0  0
   -3.3996   -2.5415    1.8859 H   0  0  0  0  0  0  0  0  0  0  0  0
   -2.6168   -4.6650    2.8805 H   0  0  0  0  0  0  0  0  0  0  0  0
   -0.2916   -4.8345    3.7400 H   0  0  0  0  0  0  0  0  0  0  0  0
    0.4863   -0.8289    2.6494 H   0  0  0  0  0  0  0  0  0  0  0  0
   -1.3184    1.1161    3.3614 H   0  0  0  0  0  0  0  0  0  0  0  0
   -2.9772    2.8804    2.9371 H   0  0  0  0  0  0  0  0  0  0  0  0
   -3.7313    1.8487    1.4691 H   0  0  0  0  0  0  0  0  0  0  0  0
   -4.2611    0.0461    3.0141 H   0  0  0  0  0  0  0  0  0  0  0  0
   -3.5093    1.0881    4.4760 H   0  0  0  0  0  0  0  0  0  0  0  0
    1.5102    1.4808   -0.2953 H   0  0  0  0  0  0  0  0  0  0  0  0
    2.0489   -0.2050   -4.1627 H   0  0  0  0  0  0  0  0  0  0  0  0
    3.5101    1.4324   -4.6755 H   0  0  0  0  0  0  0  0  0  0  0  0
    5.6030    2.6782   -4.9621 H   0  0  0  0  0  0  0  0  0  0  0  0
    6.7584    3.6612   -3.0041 H   0  0  0  0  0  0  0  0  0  0  0  0
    5.8046    3.3821   -0.7356 H   0  0  0  0  0  0  0  0  0  0  0  0
    3.7280    2.1167   -0.4068 H   0  0  0  0  0  0  0  0  0  0  0  0
  1  2  2  0
  2  3  1  0
  3  4  1  0
  4  5  1  0
  5  6  2  0
  6  7  1  0
  7  8  2  0
  8  9  1  0
  9 10  2  0
  4 11  1  0
 11 12  1  0
 12 13  1  0
  2 14  1  0
 14 15  1  0
 15 16  2  0
 16 17  1  0
 17 18  1  0
 16 19  1  0
 19 20  2  0
 20 21  1  0
 21 22  2  0
 22 23  1  0
 23 24  2  0
  5 10  1  0
 13 11  1  0
 14 18  2  0
 19 24  1  0
  3 25  1  0
  4 26  1  0
  6 27  1  0
  7 28  1  0
  8 29  1  0
 10 30  1  0
 11 31  1  0
 12 32  1  0
 12 33  1  0
 13 34  1  0
 13 35  1  0
 15 36  1  0
 17 37  1  0
 20 38  1  0
 21 39  1  0
 22 40  1  0
 23 41  1  0
 24 42  1  0
M  END
$$$$
