
     RDKit          3D

 43 45  0  0  0  0  0  0  0  0999 V2000
    1.7671   -4.9344   -3.4901 C   0  0  0  0  0  0  0  0  0  0  0  0
    1.6013   -3.7316   -2.6812 N   0  0  0  0  0  0  0  0  0  0  0  0
    1.5477   -3.7508   -1.3586 N   0  0  0  0  0  0  0  0  0  0  0  0
    1.3958   -2.4825   -0.9319 C   0  0  0  0  0  0  0  0  0  0  0  0
    1.3499   -1.6303   -2.0220 C   0  0  0  0  0  0  0  0  0  0  0  0
    1.2449   -0.1562   -1.9787 C   0  0  0  0  0  0  0  0  0  0  0  0
    1.6064    0.5235   -2.9765 O   0  0  0  0  0  0  0  0  0  0  0  0
    0.7664    0.5174   -0.8006 N   0  0  0  0  0  0  0  0  0  0  0  0
   -0.4665    0.0854   -0.1324 C   0  0  0  0  0  0  0  0  0  0  0  0
   -1.5321    1.1801   -0.2598 C   0  0  0  0  0  0  0  0  0  0  0  0
   -0.9978    2.5452    0.2228 C   0  0  0  0  0  0  0  0  0  0  0  0
    0.2967    2.9080   -0.5255 C   0  0  0  0  0  0  0  0  0  0  0  0
    1.3461    1.7997   -0.3888 C   0  0  0  0  0  0  0  0  0  0  0  0
   -0.7336    2.5175    1.6290 O   0  0  0  0  0  0  0  0  0  0  0  0
   -1.7005    2.5188    2.6475 C   0  0  0  0  0  0  0  0  0  0  0  0
   -1.2650    2.3531    3.9684 C   0  0  0  0  0  0  0  0  0  0  0  0
   -2.1816    2.3453    5.0240 C   0  0  0  0  0  0  0  0  0  0  0  0
   -3.5462    2.5071    4.7676 C   0  0  0  0  0  0  0  0  0  0  0  0
   -4.6964    2.4966    6.0921 Cl  0  0  0  0  0  0  0  0  0  0  0  0
   -3.9923    2.6787    3.4537 C   0  0  0  0  0  0  0  0  0  0  0  0
   -3.0773    2.6867    2.3960 C   0  0  0  0  0  0  0  0  0  0  0  0
    1.4817   -2.4610   -3.1267 C   0  0  0  0  0  0  0  0  0  0  0  0
    1.5146   -2.0440   -4.5716 C   0  0  0  0  0  0  0  0  0  0  0  0
    2.6880   -1.3617   -4.8325 F   0  0  0  0  0  0  0  0  0  0  0  0
    0.4325   -1.2304   -4.8530 F   0  0  0  0  0  0  0  0  0  0  0  0
    1.8874   -5.8238   -2.8358 H   0  0  0  0  0  0  0  0  0  0  0  0
    0.8725   -5.0824   -4.1307 H   0  0  0  0  0  0  0  0  0  0  0  0
    2.6714   -4.8382   -4.1272 H   0  0  0  0  0  0  0  0  0  0  0  0
    1.3435   -2.1978    0.1104 H   0  0  0  0  0  0  0  0  0  0  0  0
   -0.8627   -0.8510   -0.5805 H   0  0  0  0  0  0  0  0  0  0  0  0
   -0.2547   -0.1105    0.9411 H   0  0  0  0  0  0  0  0  0  0  0  0
   -1.8384    1.2650   -1.3255 H   0  0  0  0  0  0  0  0  0  0  0  0
   -2.4293    0.8849    0.3230 H   0  0  0  0  0  0  0  0  0  0  0  0
   -1.7420    3.3391   -0.0030 H   0  0  0  0  0  0  0  0  0  0  0  0
    0.7077    3.8587   -0.1222 H   0  0  0  0  0  0  0  0  0  0  0  0
    0.0698    3.0640   -1.6032 H   0  0  0  0  0  0  0  0  0  0  0  0
    2.2399    2.0529   -0.9994 H   0  0  0  0  0  0  0  0  0  0  0  0
    1.6769    1.7271    0.6699 H   0  0  0  0  0  0  0  0  0  0  0  0
   -0.2101    2.2263    4.1767 H   0  0  0  0  0  0  0  0  0  0  0  0
   -1.8300    2.2135    6.0394 H   0  0  0  0  0  0  0  0  0  0  0  0
   -5.0480    2.8068    3.2506 H   0  0  0  0  0  0  0  0  0  0  0  0
   -3.4541    2.8258    1.3932 H   0  0  0  0  0  0  0  0  0  0  0  0
    1.4641   -2.9258   -5.2412 H   0  0  0  0  0  0  0  0  0  0  0  0
  1  2  1  0
  2  3  1  0
  3  4  2  0
  4  5  1  0
  5  6  1  0
  6  7  2  0
  6  8  1  0
  8  9  1  0
  9 10  1  0
 10 11  1  0
 11 12  1  0
 12 13  1  0
 11 14  1  0
 14 15  1  0
 15 16  2  0
 16 17  1  0
 17 18  2  0
 18 19  1  0
 18 20  1  0
 20 21  2  0
  5 22  2  0
 22 23  1  0
 23 24  1  0
 23 25  1  0
 22  2  1  0
 13  8  1  0
 15 21  1  0
  1 26  1  0
  1 27  1  0
  1 28  1  0
  4 29  1  0
  9 30  1  0
  9 31  1  0
 10 32  1  0
 10 33  1  0
 11 34  1  0
 12 35  1  0
 12 36  1  0
 13 37  1  0
 13 38  1  0
 16 39  1  0
 17 40  1  0
 20 41  1  0
 21 42  1  0
 23 43  1  0
M  END
$$$$
