
     RDKit          3D

 45 49  0  0  0  0  0  0  0  0999 V2000
    2.9988   -1.2466    4.2930 O   0  0  0  0  0  0  0  0  0  0  0  0
    2.2313   -0.1318    3.9279 C   0  0  0  0  0  0  0  0  0  0  0  0
    2.3210    0.0978    2.4148 C   0  0  0  0  0  0  0  0  0  0  0  0
    1.7345    1.4550    1.9663 C   0  0  0  0  0  0  0  0  0  0  0  0
    1.9623    1.6683    0.4400 C   0  0  0  0  0  0  0  0  0  0  0  0
    0.6407    1.5876   -0.1788 N   0  0  0  0  0  0  0  0  0  0  0  0
    0.4056    1.5884   -1.6220 C   0  0  0  0  0  0  0  0  0  0  0  0
    0.2141    0.1587   -2.1290 C   0  0  0  0  0  0  0  0  0  0  0  0
   -1.0572   -0.6051   -1.7859 C   0  0  0  0  0  0  0  0  0  0  0  0
   -0.5744   -1.3510   -3.0127 C   0  0  0  0  0  0  0  0  0  0  0  0
   -0.0604   -0.0562   -3.6097 C   0  0  0  0  0  0  0  0  0  0  0  0
    0.7283   -1.9151   -2.4713 C   0  0  0  0  0  0  0  0  0  0  0  0
    1.2581   -0.7559   -1.8382 O   0  0  0  0  0  0  0  0  0  0  0  0
   -1.5165   -2.2158   -3.7868 C   0  0  0  0  0  0  0  0  0  0  0  0
   -1.4491   -2.4066   -5.1188 N   0  0  0  0  0  0  0  0  0  0  0  0
   -2.4064   -3.2810   -5.3825 N   0  0  0  0  0  0  0  0  0  0  0  0
   -3.0151   -3.6099   -4.2562 N   0  0  0  0  0  0  0  0  0  0  0  0
   -2.4816   -2.9710   -3.2299 N   0  0  0  0  0  0  0  0  0  0  0  0
   -0.3407    1.5479    0.8431 C   0  0  0  0  0  0  0  0  0  0  0  0
   -1.7268    1.6601    0.6872 C   0  0  0  0  0  0  0  0  0  0  0  0
   -2.5266    1.7181    1.8384 C   0  0  0  0  0  0  0  0  0  0  0  0
   -1.9338    1.6986    3.1138 C   0  0  0  0  0  0  0  0  0  0  0  0
   -0.5391    1.6087    3.2433 C   0  0  0  0  0  0  0  0  0  0  0  0
    0.2383    1.5030    2.0849 C   0  0  0  0  0  0  0  0  0  0  0  0
    3.9449   -0.9461    4.3166 H   0  0  0  0  0  0  0  0  0  0  0  0
    2.5743    0.7709    4.4837 H   0  0  0  0  0  0  0  0  0  0  0  0
    1.1792   -0.3376    4.2104 H   0  0  0  0  0  0  0  0  0  0  0  0
    1.8075   -0.7354    1.8849 H   0  0  0  0  0  0  0  0  0  0  0  0
    3.3948    0.0714    2.1258 H   0  0  0  0  0  0  0  0  0  0  0  0
    2.1945    2.2891    2.5409 H   0  0  0  0  0  0  0  0  0  0  0  0
    2.6370    0.9048   -0.0054 H   0  0  0  0  0  0  0  0  0  0  0  0
    2.3920    2.6767    0.2557 H   0  0  0  0  0  0  0  0  0  0  0  0
   -0.4761    2.2161   -1.8699 H   0  0  0  0  0  0  0  0  0  0  0  0
    1.2852    2.0289   -2.1388 H   0  0  0  0  0  0  0  0  0  0  0  0
   -1.0343   -1.1599   -0.8183 H   0  0  0  0  0  0  0  0  0  0  0  0
   -1.9977   -0.0308   -1.9572 H   0  0  0  0  0  0  0  0  0  0  0  0
   -0.8620    0.6009   -4.0229 H   0  0  0  0  0  0  0  0  0  0  0  0
    0.8447   -0.1268   -4.2581 H   0  0  0  0  0  0  0  0  0  0  0  0
    0.5616   -2.7296   -1.7311 H   0  0  0  0  0  0  0  0  0  0  0  0
    1.4051   -2.2686   -3.2813 H   0  0  0  0  0  0  0  0  0  0  0  0
   -3.8053   -4.2880   -4.1860 H   0  0  0  0  0  0  0  0  0  0  0  0
   -2.1816    1.7255   -0.2907 H   0  0  0  0  0  0  0  0  0  0  0  0
   -3.6014    1.8038    1.7444 H   0  0  0  0  0  0  0  0  0  0  0  0
   -2.5537    1.7716    3.9979 H   0  0  0  0  0  0  0  0  0  0  0  0
   -0.0808    1.6415    4.2222 H   0  0  0  0  0  0  0  0  0  0  0  0
  1  2  1  0
  2  3  1  0
  3  4  1  0
  4  5  1  0
  5  6  1  0
  6  7  1  0
  7  8  1  0
  8  9  1  0
  9 10  1  0
 10 11  1  0
 10 12  1  0
 12 13  1  0
 10 14  1  0
 14 15  1  0
 15 16  2  0
 16 17  1  0
 17 18  1  0
  6 19  1  0
 19 20  2  0
 20 21  1  0
 21 22  2  0
 22 23  1  0
 23 24  2  0
 24  4  1  0
 11  8  1  0
 13  8  1  0
 14 18  2  0
 19 24  1  0
  1 25  1  0
  2 26  1  0
  2 27  1  0
  3 28  1  0
  3 29  1  0
  4 30  1  0
  5 31  1  0
  5 32  1  0
  7 33  1  0
  7 34  1  0
  9 35  1  0
  9 36  1  0
 11 37  1  0
 11 38  1  0
 12 39  1  0
 12 40  1  0
 17 41  1  0
 20 42  1  0
 21 43  1  0
 22 44  1  0
 23 45  1  0
M  END
$$$$
