
     RDKit          3D

 44 46  0  0  0  0  0  0  0  0999 V2000
   -2.0462    0.4387    0.0085 C   0  0  0  0  0  0  0  0  0  0  0  0
   -2.4815    1.7938   -0.0210 O   0  0  0  0  0  0  0  0  0  0  0  0
   -1.6767    2.8327   -0.4975 C   0  0  0  0  0  0  0  0  0  0  0  0
   -2.1375    4.1475   -0.4413 C   0  0  0  0  0  0  0  0  0  0  0  0
   -1.3070    5.1645   -0.9105 C   0  0  0  0  0  0  0  0  0  0  0  0
   -0.0787    4.8637   -1.4069 N   0  0  0  0  0  0  0  0  0  0  0  0
    0.3647    3.5768   -1.4593 C   0  0  0  0  0  0  0  0  0  0  0  0
   -0.4441    2.5772   -1.0114 N   0  0  0  0  0  0  0  0  0  0  0  0
    1.6713    3.2741   -1.9961 N   0  0  0  0  0  0  0  0  0  0  0  0
    2.4205    4.3133   -2.7073 C   0  0  0  0  0  0  0  0  0  0  0  0
    2.1477    1.9139   -2.0485 C   0  0  0  0  0  0  0  0  0  0  0  0
    2.6755    1.4825   -3.1100 O   0  0  0  0  0  0  0  0  0  0  0  0
    2.0310    1.0119   -0.8799 C   0  0  0  0  0  0  0  0  0  0  0  0
    2.0807    1.5258    0.4268 C   0  0  0  0  0  0  0  0  0  0  0  0
    1.9168    0.6785    1.5259 C   0  0  0  0  0  0  0  0  0  0  0  0
    1.6872   -0.6883    1.3389 C   0  0  0  0  0  0  0  0  0  0  0  0
    1.6813   -1.2130    0.0347 C   0  0  0  0  0  0  0  0  0  0  0  0
    1.8541   -0.3686   -1.0656 C   0  0  0  0  0  0  0  0  0  0  0  0
    1.5011   -1.5006    2.4657 O   0  0  0  0  0  0  0  0  0  0  0  0
    0.6443   -2.6073    2.5182 C   0  0  0  0  0  0  0  0  0  0  0  0
    0.7655   -3.5162    3.5713 C   0  0  0  0  0  0  0  0  0  0  0  0
   -0.0999   -4.6094    3.6398 C   0  0  0  0  0  0  0  0  0  0  0  0
   -1.0765   -4.7999    2.6493 C   0  0  0  0  0  0  0  0  0  0  0  0
   -1.1853   -3.8427    1.6273 C   0  0  0  0  0  0  0  0  0  0  0  0
   -0.3314   -2.7861    1.5845 N   0  0  0  0  0  0  0  0  0  0  0  0
   -2.0507   -5.9466    2.7378 C   0  0  0  0  0  0  0  0  0  0  0  0
   -1.4624   -7.0407    3.3483 F   0  0  0  0  0  0  0  0  0  0  0  0
   -3.1498   -5.5541    3.4785 F   0  0  0  0  0  0  0  0  0  0  0  0
   -2.4704   -6.3287    1.4753 F   0  0  0  0  0  0  0  0  0  0  0  0
   -2.8567   -0.1969    0.4201 H   0  0  0  0  0  0  0  0  0  0  0  0
   -1.8033    0.0930   -1.0187 H   0  0  0  0  0  0  0  0  0  0  0  0
   -1.1500    0.3419    0.6571 H   0  0  0  0  0  0  0  0  0  0  0  0
   -3.1160    4.3764   -0.0388 H   0  0  0  0  0  0  0  0  0  0  0  0
   -1.6375    6.1940   -0.8783 H   0  0  0  0  0  0  0  0  0  0  0  0
    1.9715    4.4779   -3.7093 H   0  0  0  0  0  0  0  0  0  0  0  0
    3.4848    4.0179   -2.8299 H   0  0  0  0  0  0  0  0  0  0  0  0
    2.4034    5.2639   -2.1336 H   0  0  0  0  0  0  0  0  0  0  0  0
    2.2401    2.5834    0.5969 H   0  0  0  0  0  0  0  0  0  0  0  0
    1.9458    1.0895    2.5271 H   0  0  0  0  0  0  0  0  0  0  0  0
    1.5577   -2.2745   -0.1330 H   0  0  0  0  0  0  0  0  0  0  0  0
    1.8268   -0.7908   -2.0626 H   0  0  0  0  0  0  0  0  0  0  0  0
    1.5215   -3.3735    4.3329 H   0  0  0  0  0  0  0  0  0  0  0  0
   -0.0085   -5.3025    4.4667 H   0  0  0  0  0  0  0  0  0  0  0  0
   -1.9499   -3.9310    0.8666 H   0  0  0  0  0  0  0  0  0  0  0  0
  1  2  1  0
  2  3  1  0
  3  4  2  0
  4  5  1  0
  5  6  2  0
  6  7  1  0
  7  8  2  0
  7  9  1  0
  9 10  1  0
  9 11  1  0
 11 12  2  0
 11 13  1  0
 13 14  2  0
 14 15  1  0
 15 16  2  0
 16 17  1  0
 17 18  2  0
 16 19  1  0
 19 20  1  0
 20 21  2  0
 21 22  1  0
 22 23  2  0
 23 24  1  0
 24 25  2  0
 23 26  1  0
 26 27  1  0
 26 28  1  0
 26 29  1  0
  3  8  1  0
 13 18  1  0
 20 25  1  0
  1 30  1  0
  1 31  1  0
  1 32  1  0
  4 33  1  0
  5 34  1  0
 10 35  1  0
 10 36  1  0
 10 37  1  0
 14 38  1  0
 15 39  1  0
 17 40  1  0
 18 41  1  0
 21 42  1  0
 22 43  1  0
 24 44  1  0
M  END
$$$$
