
     RDKit          3D

 49 51  0  0  0  0  0  0  0  0999 V2000
   -5.4257    5.3764   -0.9947 C   0  0  0  0  0  0  0  0  0  0  0  0
   -4.1182    4.8275   -1.4652 C   0  0  0  0  0  0  0  0  0  0  0  0
   -3.9630    4.5613   -2.6880 O   0  0  0  0  0  0  0  0  0  0  0  0
   -3.0262    4.6959   -0.5423 N   0  0  0  0  0  0  0  0  0  0  0  0
   -1.7972    4.0105   -0.8388 C   0  0  0  0  0  0  0  0  0  0  0  0
   -1.7723    2.8695   -1.6603 C   0  0  0  0  0  0  0  0  0  0  0  0
   -0.5678    2.2063   -1.9120 C   0  0  0  0  0  0  0  0  0  0  0  0
    0.6282    2.6671   -1.3422 C   0  0  0  0  0  0  0  0  0  0  0  0
    0.6006    3.7884   -0.4996 C   0  0  0  0  0  0  0  0  0  0  0  0
   -0.6043    4.4505   -0.2466 C   0  0  0  0  0  0  0  0  0  0  0  0
    1.9141    1.9277   -1.5932 C   0  0  0  0  0  0  0  0  0  0  0  0
    1.9012    0.6464   -0.8920 N   0  0  0  0  0  0  0  0  0  0  0  0
    2.0343    0.5515    0.5354 C   0  0  0  0  0  0  0  0  0  0  0  0
    2.3087    1.5797    1.2123 O   0  0  0  0  0  0  0  0  0  0  0  0
    1.8430   -0.7643    1.2462 C   0  0  0  0  0  0  0  0  0  0  0  0
    2.8978   -1.7932    0.8024 C   0  0  0  0  0  0  0  0  0  0  0  0
    2.6937   -3.1213    1.5368 C   0  0  0  0  0  0  0  0  0  0  0  0
    1.3061   -3.5815    1.3791 N   0  0  0  0  0  0  0  0  0  0  0  0
    0.2304   -2.6478    1.7386 C   0  0  0  0  0  0  0  0  0  0  0  0
    0.4226   -1.3107    1.0156 C   0  0  0  0  0  0  0  0  0  0  0  0
    1.0159   -4.9883    1.2712 C   0  0  0  0  0  0  0  0  0  0  0  0
    1.7068   -5.8053    0.3622 C   0  0  0  0  0  0  0  0  0  0  0  0
    1.3978   -7.1264    0.2790 N   0  0  0  0  0  0  0  0  0  0  0  0
    0.4286   -7.6746    1.0572 C   0  0  0  0  0  0  0  0  0  0  0  0
   -0.2708   -6.8651    1.9523 C   0  0  0  0  0  0  0  0  0  0  0  0
    0.0359   -5.5442    2.0374 N   0  0  0  0  0  0  0  0  0  0  0  0
   -6.2357    5.1150   -1.7090 H   0  0  0  0  0  0  0  0  0  0  0  0
   -5.3544    6.4813   -0.9117 H   0  0  0  0  0  0  0  0  0  0  0  0
   -5.6770    4.9506   -0.0006 H   0  0  0  0  0  0  0  0  0  0  0  0
   -3.1013    5.1972    0.3724 H   0  0  0  0  0  0  0  0  0  0  0  0
   -2.6843    2.4720   -2.0844 H   0  0  0  0  0  0  0  0  0  0  0  0
   -0.5679    1.3254   -2.5418 H   0  0  0  0  0  0  0  0  0  0  0  0
    1.5097    4.1485   -0.0344 H   0  0  0  0  0  0  0  0  0  0  0  0
   -0.6080    5.3141    0.4068 H   0  0  0  0  0  0  0  0  0  0  0  0
    2.0183    1.7477   -2.6853 H   0  0  0  0  0  0  0  0  0  0  0  0
    2.7976    2.5234   -1.2758 H   0  0  0  0  0  0  0  0  0  0  0  0
    1.7550   -0.2197   -1.4563 H   0  0  0  0  0  0  0  0  0  0  0  0
    1.9707   -0.5897    2.3394 H   0  0  0  0  0  0  0  0  0  0  0  0
    2.8267   -1.9775   -0.2917 H   0  0  0  0  0  0  0  0  0  0  0  0
    3.9168   -1.4072    1.0235 H   0  0  0  0  0  0  0  0  0  0  0  0
    3.4182   -3.8633    1.1414 H   0  0  0  0  0  0  0  0  0  0  0  0
    2.9121   -2.9870    2.6186 H   0  0  0  0  0  0  0  0  0  0  0  0
    0.2336   -2.4872    2.8386 H   0  0  0  0  0  0  0  0  0  0  0  0
   -0.7607   -3.0619    1.4499 H   0  0  0  0  0  0  0  0  0  0  0  0
   -0.3273   -0.5814    1.3937 H   0  0  0  0  0  0  0  0  0  0  0  0
    0.2381   -1.4633   -0.0706 H   0  0  0  0  0  0  0  0  0  0  0  0
    2.4663   -5.3962   -0.2904 H   0  0  0  0  0  0  0  0  0  0  0  0
    0.1985   -8.7288    0.9756 H   0  0  0  0  0  0  0  0  0  0  0  0
   -1.0494   -7.2824    2.5762 H   0  0  0  0  0  0  0  0  0  0  0  0
  1  2  1  0
  2  3  2  0
  2  4  1  0
  4  5  1  0
  5  6  2  0
  6  7  1  0
  7  8  2  0
  8  9  1  0
  9 10  2  0
  8 11  1  0
 11 12  1  0
 12 13  1  0
 13 14  2  0
 13 15  1  0
 15 16  1  0
 16 17  1  0
 17 18  1  0
 18 19  1  0
 19 20  1  0
 18 21  1  0
 21 22  2  0
 22 23  1  0
 23 24  2  0
 24 25  1  0
 25 26  2  0
  5 10  1  0
 20 15  1  0
 26 21  1  0
  1 27  1  0
  1 28  1  0
  1 29  1  0
  4 30  1  0
  6 31  1  0
  7 32  1  0
  9 33  1  0
 10 34  1  0
 11 35  1  0
 11 36  1  0
 12 37  1  0
 15 38  1  0
 16 39  1  0
 16 40  1  0
 17 41  1  0
 17 42  1  0
 19 43  1  0
 19 44  1  0
 20 45  1  0
 20 46  1  0
 22 47  1  0
 24 48  1  0
 25 49  1  0
M  END
$$$$
