
     RDKit          3D

 46 47  0  0  0  0  0  0  0  0999 V2000
    0.1224    6.0331    3.6927 C   0  0  0  0  0  0  0  0  0  0  0  0
    1.0687    4.8657    3.9209 C   0  0  0  0  0  0  0  0  0  0  0  0
    0.5381    3.6972    3.3054 O   0  0  0  0  0  0  0  0  0  0  0  0
    1.1863    2.4600    3.3434 C   0  0  0  0  0  0  0  0  0  0  0  0
    2.2897    2.3425    3.9440 O   0  0  0  0  0  0  0  0  0  0  0  0
    0.5887    1.2819    2.6824 C   0  0  0  0  0  0  0  0  0  0  0  0
    1.1665    0.0230    2.6593 C   0  0  0  0  0  0  0  0  0  0  0  0
    0.3051   -0.7748    1.9365 C   0  0  0  0  0  0  0  0  0  0  0  0
   -0.7569    0.0083    1.5416 C   0  0  0  0  0  0  0  0  0  0  0  0
   -0.5833    1.2637    2.0002 N   0  0  0  0  0  0  0  0  0  0  0  0
   -1.4999    2.3765    1.7622 C   0  0  0  0  0  0  0  0  0  0  0  0
    0.5509   -2.4602    1.5171 S   0  0  0  0  0  0  0  0  0  0  0  0
    1.9583   -2.8760    1.8409 O   0  0  0  0  0  0  0  0  0  0  0  0
   -0.4092   -3.3011    2.3096 O   0  0  0  0  0  0  0  0  0  0  0  0
    0.2587   -2.6877   -0.1769 N   0  0  0  0  0  0  0  0  0  0  0  0
    0.6086   -1.6939   -1.1562 C   0  0  0  0  0  0  0  0  0  0  0  0
    1.8008   -0.9611   -1.0093 C   0  0  0  0  0  0  0  0  0  0  0  0
    2.1626    0.0079   -1.9454 C   0  0  0  0  0  0  0  0  0  0  0  0
    1.3441    0.2571   -3.0452 C   0  0  0  0  0  0  0  0  0  0  0  0
    1.6994    1.1976   -3.9548 F   0  0  0  0  0  0  0  0  0  0  0  0
    0.1594   -0.4614   -3.2110 C   0  0  0  0  0  0  0  0  0  0  0  0
   -0.2263   -1.4380   -2.2749 C   0  0  0  0  0  0  0  0  0  0  0  0
   -1.5287   -2.1691   -2.4993 C   0  0  0  0  0  0  0  0  0  0  0  0
   -1.3239   -3.4992   -3.6768 S   0  0  0  0  0  0  0  0  0  0  0  0
   -0.1029   -4.6724   -3.1271 C   0  0  0  0  0  0  0  0  0  0  0  0
   -0.8989   -2.9343   -5.0031 O   0  0  0  0  0  0  0  0  0  0  0  0
   -2.6383   -4.2073   -3.8451 O   0  0  0  0  0  0  0  0  0  0  0  0
    0.5321    6.9475    4.1712 H   0  0  0  0  0  0  0  0  0  0  0  0
    0.0034    6.2171    2.6039 H   0  0  0  0  0  0  0  0  0  0  0  0
   -0.8712    5.8077    4.1349 H   0  0  0  0  0  0  0  0  0  0  0  0
    2.0606    5.1050    3.4798 H   0  0  0  0  0  0  0  0  0  0  0  0
    1.1854    4.6950    5.0131 H   0  0  0  0  0  0  0  0  0  0  0  0
    2.1090   -0.2737    3.1008 H   0  0  0  0  0  0  0  0  0  0  0  0
   -1.5958   -0.3183    0.9397 H   0  0  0  0  0  0  0  0  0  0  0  0
   -0.9811    3.1758    1.1925 H   0  0  0  0  0  0  0  0  0  0  0  0
   -2.3790    2.0403    1.1717 H   0  0  0  0  0  0  0  0  0  0  0  0
   -1.8638    2.7785    2.7309 H   0  0  0  0  0  0  0  0  0  0  0  0
   -0.2803   -3.5358   -0.4529 H   0  0  0  0  0  0  0  0  0  0  0  0
    2.4624   -1.1465   -0.1741 H   0  0  0  0  0  0  0  0  0  0  0  0
    3.0831    0.5631   -1.8187 H   0  0  0  0  0  0  0  0  0  0  0  0
   -0.4654   -0.2522   -4.0708 H   0  0  0  0  0  0  0  0  0  0  0  0
   -2.2861   -1.4621   -2.9007 H   0  0  0  0  0  0  0  0  0  0  0  0
   -1.9527   -2.5645   -1.5548 H   0  0  0  0  0  0  0  0  0  0  0  0
   -0.4594   -5.1794   -2.2075 H   0  0  0  0  0  0  0  0  0  0  0  0
    0.8539   -4.1507   -2.9200 H   0  0  0  0  0  0  0  0  0  0  0  0
    0.0607   -5.4324   -3.9186 H   0  0  0  0  0  0  0  0  0  0  0  0
  1  2  1  0
  2  3  1  0
  3  4  1  0
  4  5  2  0
  4  6  1  0
  6  7  2  0
  7  8  1  0
  8  9  2  0
  9 10  1  0
 10 11  1  0
  8 12  1  0
 12 13  2  0
 12 14  2  0
 12 15  1  0
 15 16  1  0
 16 17  2  0
 17 18  1  0
 18 19  2  0
 19 20  1  0
 19 21  1  0
 21 22  2  0
 22 23  1  0
 23 24  1  0
 24 25  1  0
 24 26  2  0
 24 27  2  0
 10  6  1  0
 16 22  1  0
  1 28  1  0
  1 29  1  0
  1 30  1  0
  2 31  1  0
  2 32  1  0
  7 33  1  0
  9 34  1  0
 11 35  1  0
 11 36  1  0
 11 37  1  0
 15 38  1  0
 17 39  1  0
 18 40  1  0
 21 41  1  0
 23 42  1  0
 23 43  1  0
 25 44  1  0
 25 45  1  0
 25 46  1  0
M  END
$$$$
