
     RDKit          3D

 45 48  0  0  0  0  0  0  0  0999 V2000
   -0.0155   -2.3697   -0.9009 O   0  0  0  0  0  0  0  0  0  0  0  0
    0.7501   -1.3671   -0.8872 C   0  0  0  0  0  0  0  0  0  0  0  0
    2.1426   -1.5338   -0.4172 C   0  0  0  0  0  0  0  0  0  0  0  0
    2.4362   -2.4683    0.6058 C   0  0  0  0  0  0  0  0  0  0  0  0
    3.7529   -2.6440    1.0585 C   0  0  0  0  0  0  0  0  0  0  0  0
    4.7563   -1.8844    0.4672 C   0  0  0  0  0  0  0  0  0  0  0  0
    6.4019   -1.8825    0.7895 S   0  0  0  0  0  0  0  0  0  0  0  0
    6.7126   -0.7098   -0.3919 C   0  0  0  0  0  0  0  0  0  0  0  0
    5.5800   -0.3216   -1.0279 N   0  0  0  0  0  0  0  0  0  0  0  0
    4.4942   -0.9778   -0.5443 C   0  0  0  0  0  0  0  0  0  0  0  0
    3.1906   -0.7914   -1.0053 C   0  0  0  0  0  0  0  0  0  0  0  0
    0.2467   -0.0836   -1.3073 N   0  0  0  0  0  0  0  0  0  0  0  0
   -0.8323   -0.0015   -2.2954 C   0  0  0  0  0  0  0  0  0  0  0  0
   -2.1338    0.4724   -1.6286 C   0  0  0  0  0  0  0  0  0  0  0  0
   -1.9233    1.5455   -0.4960 C   0  0  0  0  0  0  0  0  0  0  0  0
   -2.9654    2.6923   -0.6354 C   0  0  0  0  0  0  0  0  0  0  0  0
   -4.3958    2.2413   -0.3062 C   0  0  0  0  0  0  0  0  0  0  0  0
   -4.4881    1.6678    1.1121 C   0  0  0  0  0  0  0  0  0  0  0  0
   -4.2224    2.6782    2.0517 O   0  0  0  0  0  0  0  0  0  0  0  0
   -3.5045    0.5009    1.2828 C   0  0  0  0  0  0  0  0  0  0  0  0
   -2.0624    0.9003    0.9200 C   0  0  0  0  0  0  0  0  0  0  0  0
   -0.5071    2.1835   -0.6240 C   0  0  0  0  0  0  0  0  0  0  0  0
    0.6153    1.1321   -0.5670 C   0  0  0  0  0  0  0  0  0  0  0  0
    1.6439   -3.0503    1.0599 H   0  0  0  0  0  0  0  0  0  0  0  0
    3.9801   -3.3520    1.8448 H   0  0  0  0  0  0  0  0  0  0  0  0
    7.6899   -0.3097   -0.6241 H   0  0  0  0  0  0  0  0  0  0  0  0
    3.0009   -0.1028   -1.8187 H   0  0  0  0  0  0  0  0  0  0  0  0
   -0.5386    0.7238   -3.0853 H   0  0  0  0  0  0  0  0  0  0  0  0
   -0.9957   -0.9779   -2.8019 H   0  0  0  0  0  0  0  0  0  0  0  0
   -2.6550   -0.4240   -1.2356 H   0  0  0  0  0  0  0  0  0  0  0  0
   -2.7859    0.8696   -2.4367 H   0  0  0  0  0  0  0  0  0  0  0  0
   -2.9461    3.1039   -1.6686 H   0  0  0  0  0  0  0  0  0  0  0  0
   -2.6984    3.5311    0.0457 H   0  0  0  0  0  0  0  0  0  0  0  0
   -4.7322    1.4775   -1.0405 H   0  0  0  0  0  0  0  0  0  0  0  0
   -5.0817    3.1116   -0.3951 H   0  0  0  0  0  0  0  0  0  0  0  0
   -5.5254    1.2868    1.2608 H   0  0  0  0  0  0  0  0  0  0  0  0
   -4.5521    2.3485    2.9283 H   0  0  0  0  0  0  0  0  0  0  0  0
   -3.5275    0.1524    2.3381 H   0  0  0  0  0  0  0  0  0  0  0  0
   -3.8387   -0.3549    0.6600 H   0  0  0  0  0  0  0  0  0  0  0  0
   -1.4246   -0.0069    0.9927 H   0  0  0  0  0  0  0  0  0  0  0  0
   -1.7004    1.6145    1.6928 H   0  0  0  0  0  0  0  0  0  0  0  0
   -0.4338    2.7270   -1.5926 H   0  0  0  0  0  0  0  0  0  0  0  0
   -0.3379    2.9343    0.1794 H   0  0  0  0  0  0  0  0  0  0  0  0
    0.8103    0.8800    0.4987 H   0  0  0  0  0  0  0  0  0  0  0  0
    1.5444    1.5660   -0.9912 H   0  0  0  0  0  0  0  0  0  0  0  0
  1  2  2  0
  2  3  1  0
  3  4  2  0
  4  5  1  0
  5  6  2  0
  6  7  1  0
  7  8  1  0
  8  9  2  0
  9 10  1  0
 10 11  2  0
  2 12  1  0
 12 13  1  0
 13 14  1  0
 14 15  1  0
 15 16  1  0
 16 17  1  0
 17 18  1  0
 18 19  1  0
 18 20  1  0
 20 21  1  0
 15 22  1  0
 22 23  1  0
  3 11  1  0
  6 10  1  0
 23 12  1  0
 21 15  1  0
  4 24  1  0
  5 25  1  0
  8 26  1  0
 11 27  1  0
 13 28  1  0
 13 29  1  0
 14 30  1  0
 14 31  1  0
 16 32  1  0
 16 33  1  0
 17 34  1  0
 17 35  1  0
 18 36  1  0
 19 37  1  0
 20 38  1  0
 20 39  1  0
 21 40  1  0
 21 41  1  0
 22 42  1  0
 22 43  1  0
 23 44  1  0
 23 45  1  0
M  END
$$$$
