
     RDKit          3D

 46 49  0  0  0  0  0  0  0  0999 V2000
   -5.9435    2.6708    5.1305 C   0  0  0  0  0  0  0  0  0  0  0  0
   -4.5137    2.4004    4.6662 C   0  0  0  0  0  0  0  0  0  0  0  0
   -4.4405    1.9415    3.1981 C   0  0  0  0  0  0  0  0  0  0  0  0
   -3.5453    2.9791    2.5993 C   0  0  0  0  0  0  0  0  0  0  0  0
   -3.2293    3.8990    3.4444 N   0  0  0  0  0  0  0  0  0  0  0  0
   -3.7606    3.6025    4.6713 O   0  0  0  0  0  0  0  0  0  0  0  0
   -3.2287    3.0879    1.1297 C   0  0  0  0  0  0  0  0  0  0  0  0
   -2.7131    1.8244    0.5039 C   0  0  0  0  0  0  0  0  0  0  0  0
   -1.3692    2.3410    0.1901 N   0  0  0  0  0  0  0  0  0  0  0  0
   -1.8469    3.5855    0.8172 C   0  0  0  0  0  0  0  0  0  0  0  0
   -0.1741    1.8679   -0.4273 C   0  0  0  0  0  0  0  0  0  0  0  0
    0.8149    2.6412   -0.5307 O   0  0  0  0  0  0  0  0  0  0  0  0
   -0.1106    0.5218   -0.9192 N   0  0  0  0  0  0  0  0  0  0  0  0
    1.0400   -0.0375   -1.5672 C   0  0  0  0  0  0  0  0  0  0  0  0
    1.1325   -1.3344   -2.0300 C   0  0  0  0  0  0  0  0  0  0  0  0
    2.4063   -1.4102   -2.5635 C   0  0  0  0  0  0  0  0  0  0  0  0
    2.9940   -2.6155   -3.1918 C   0  0  0  0  0  0  0  0  0  0  0  0
    2.2059   -3.4233   -4.0307 C   0  0  0  0  0  0  0  0  0  0  0  0
    2.7456   -4.5723   -4.6170 C   0  0  0  0  0  0  0  0  0  0  0  0
    4.0721   -4.9309   -4.3636 C   0  0  0  0  0  0  0  0  0  0  0  0
    4.5934   -6.0465   -4.9315 F   0  0  0  0  0  0  0  0  0  0  0  0
    4.8572   -4.1458   -3.5151 C   0  0  0  0  0  0  0  0  0  0  0  0
    4.3206   -2.9970   -2.9254 C   0  0  0  0  0  0  0  0  0  0  0  0
    3.0026   -0.2002   -2.4321 N   0  0  0  0  0  0  0  0  0  0  0  0
    4.3278    0.1985   -2.8965 C   0  0  0  0  0  0  0  0  0  0  0  0
    2.1792    0.6363   -1.8193 N   0  0  0  0  0  0  0  0  0  0  0  0
   -6.5396    1.7349    5.0872 H   0  0  0  0  0  0  0  0  0  0  0  0
   -5.9330    3.0385    6.1781 H   0  0  0  0  0  0  0  0  0  0  0  0
   -6.4227    3.4399    4.4876 H   0  0  0  0  0  0  0  0  0  0  0  0
   -4.0276    1.6550    5.3336 H   0  0  0  0  0  0  0  0  0  0  0  0
   -3.9857    0.9312    3.1236 H   0  0  0  0  0  0  0  0  0  0  0  0
   -5.4309    1.9591    2.6925 H   0  0  0  0  0  0  0  0  0  0  0  0
   -4.0238    3.5842    0.5315 H   0  0  0  0  0  0  0  0  0  0  0  0
   -3.2612    1.5639   -0.4286 H   0  0  0  0  0  0  0  0  0  0  0  0
   -2.6396    0.9575    1.1962 H   0  0  0  0  0  0  0  0  0  0  0  0
   -1.8564    4.4182    0.0795 H   0  0  0  0  0  0  0  0  0  0  0  0
   -1.2303    3.8320    1.7104 H   0  0  0  0  0  0  0  0  0  0  0  0
   -0.9506   -0.0881   -0.7986 H   0  0  0  0  0  0  0  0  0  0  0  0
    0.3845   -2.1144   -1.9723 H   0  0  0  0  0  0  0  0  0  0  0  0
    1.1774   -3.1578   -4.2422 H   0  0  0  0  0  0  0  0  0  0  0  0
    2.1333   -5.1856   -5.2660 H   0  0  0  0  0  0  0  0  0  0  0  0
    5.8803   -4.4312   -3.3059 H   0  0  0  0  0  0  0  0  0  0  0  0
    4.9344   -2.4260   -2.2430 H   0  0  0  0  0  0  0  0  0  0  0  0
    4.3517    1.2949   -3.0743 H   0  0  0  0  0  0  0  0  0  0  0  0
    4.5742   -0.3105   -3.8524 H   0  0  0  0  0  0  0  0  0  0  0  0
    5.0858   -0.0509   -2.1261 H   0  0  0  0  0  0  0  0  0  0  0  0
  1  2  1  0
  2  3  1  0
  3  4  1  0
  4  5  2  0
  5  6  1  0
  4  7  1  0
  7  8  1  0
  8  9  1  0
  9 10  1  0
  9 11  1  0
 11 12  2  0
 11 13  1  0
 13 14  1  0
 14 15  1  0
 15 16  2  0
 16 17  1  0
 17 18  2  0
 18 19  1  0
 19 20  2  0
 20 21  1  0
 20 22  1  0
 22 23  2  0
 16 24  1  0
 24 25  1  0
 24 26  1  0
  6  2  1  0
 10  7  1  0
 14 26  2  0
 17 23  1  0
  1 27  1  0
  1 28  1  0
  1 29  1  0
  2 30  1  0
  3 31  1  0
  3 32  1  0
  7 33  1  0
  8 34  1  0
  8 35  1  0
 10 36  1  0
 10 37  1  0
 13 38  1  0
 15 39  1  0
 18 40  1  0
 19 41  1  0
 22 42  1  0
 23 43  1  0
 25 44  1  0
 25 45  1  0
 25 46  1  0
M  END
$$$$
