
     RDKit          3D

 49 51  0  0  0  0  0  0  0  0999 V2000
   -1.3780    5.2466   -1.9748 C   0  0  0  0  0  0  0  0  0  0  0  0
   -0.4532    5.3313   -0.8960 O   0  0  0  0  0  0  0  0  0  0  0  0
    0.1820    4.2087   -0.3569 C   0  0  0  0  0  0  0  0  0  0  0  0
    1.0562    4.3664    0.6690 N   0  0  0  0  0  0  0  0  0  0  0  0
    1.6837    3.2986    1.2283 C   0  0  0  0  0  0  0  0  0  0  0  0
    2.6635    3.5095    2.3387 C   0  0  0  0  0  0  0  0  0  0  0  0
    1.4417    2.0133    0.7314 C   0  0  0  0  0  0  0  0  0  0  0  0
    0.5381    1.8548   -0.3350 C   0  0  0  0  0  0  0  0  0  0  0  0
   -0.0669    2.9636   -0.8458 N   0  0  0  0  0  0  0  0  0  0  0  0
    0.2397    0.5517   -0.8913 N   0  0  0  0  0  0  0  0  0  0  0  0
    1.1214   -0.5973   -0.6124 C   0  0  0  0  0  0  0  0  0  0  0  0
    0.7978   -1.8018   -1.5006 C   0  0  0  0  0  0  0  0  0  0  0  0
   -0.6459   -2.0440   -1.5103 N   0  0  0  0  0  0  0  0  0  0  0  0
   -1.5862   -0.9286   -1.6730 C   0  0  0  0  0  0  0  0  0  0  0  0
   -0.8573    0.4066   -1.8642 C   0  0  0  0  0  0  0  0  0  0  0  0
   -1.1461   -3.3836   -1.6208 C   0  0  0  0  0  0  0  0  0  0  0  0
   -1.5217   -3.8076   -2.7466 O   0  0  0  0  0  0  0  0  0  0  0  0
   -1.2511   -4.2947   -0.4201 C   0  0  0  0  0  0  0  0  0  0  0  0
   -1.3078   -3.5124    0.9077 C   0  0  0  0  0  0  0  0  0  0  0  0
   -1.4356   -4.4685    2.1006 C   0  0  0  0  0  0  0  0  0  0  0  0
   -0.2881   -5.4859    2.1154 C   0  0  0  0  0  0  0  0  0  0  0  0
   -0.2265   -6.2657    0.7962 C   0  0  0  0  0  0  0  0  0  0  0  0
   -0.0971   -5.3146   -0.4008 C   0  0  0  0  0  0  0  0  0  0  0  0
   -1.7653    6.2609   -2.2041 H   0  0  0  0  0  0  0  0  0  0  0  0
   -0.8719    4.8420   -2.8779 H   0  0  0  0  0  0  0  0  0  0  0  0
   -2.2303    4.5906   -1.6967 H   0  0  0  0  0  0  0  0  0  0  0  0
    3.6961    3.4099    1.9450 H   0  0  0  0  0  0  0  0  0  0  0  0
    2.5409    4.5227    2.7776 H   0  0  0  0  0  0  0  0  0  0  0  0
    2.5023    2.7574    3.1401 H   0  0  0  0  0  0  0  0  0  0  0  0
    1.9468    1.1669    1.1774 H   0  0  0  0  0  0  0  0  0  0  0  0
    2.1814   -0.3105   -0.7870 H   0  0  0  0  0  0  0  0  0  0  0  0
    1.0029   -0.8959    0.4514 H   0  0  0  0  0  0  0  0  0  0  0  0
    1.3463   -2.6872   -1.1198 H   0  0  0  0  0  0  0  0  0  0  0  0
    1.1415   -1.6059   -2.5396 H   0  0  0  0  0  0  0  0  0  0  0  0
   -2.2390   -1.1079   -2.5556 H   0  0  0  0  0  0  0  0  0  0  0  0
   -2.2311   -0.8669   -0.7688 H   0  0  0  0  0  0  0  0  0  0  0  0
   -1.6062    1.2197   -1.7524 H   0  0  0  0  0  0  0  0  0  0  0  0
   -0.4406    0.4617   -2.8935 H   0  0  0  0  0  0  0  0  0  0  0  0
   -2.2068   -4.8575   -0.5197 H   0  0  0  0  0  0  0  0  0  0  0  0
   -2.1831   -2.8279    0.9011 H   0  0  0  0  0  0  0  0  0  0  0  0
   -0.3889   -2.9001    1.0350 H   0  0  0  0  0  0  0  0  0  0  0  0
   -1.4177   -3.8823    3.0444 H   0  0  0  0  0  0  0  0  0  0  0  0
   -2.4096   -5.0043    2.0492 H   0  0  0  0  0  0  0  0  0  0  0  0
    0.6768   -4.9579    2.2833 H   0  0  0  0  0  0  0  0  0  0  0  0
   -0.4393   -6.1977    2.9556 H   0  0  0  0  0  0  0  0  0  0  0  0
    0.6477   -6.9509    0.8172 H   0  0  0  0  0  0  0  0  0  0  0  0
   -1.1441   -6.8847    0.6853 H   0  0  0  0  0  0  0  0  0  0  0  0
   -0.1098   -5.9136   -1.3371 H   0  0  0  0  0  0  0  0  0  0  0  0
    0.8818   -4.7936   -0.3418 H   0  0  0  0  0  0  0  0  0  0  0  0
  1  2  1  0
  2  3  1  0
  3  4  2  0
  4  5  1  0
  5  6  1  0
  5  7  2  0
  7  8  1  0
  8  9  2  0
  8 10  1  0
 10 11  1  0
 11 12  1  0
 12 13  1  0
 13 14  1  0
 14 15  1  0
 13 16  1  0
 16 17  2  0
 16 18  1  0
 18 19  1  0
 19 20  1  0
 20 21  1  0
 21 22  1  0
 22 23  1  0
  3  9  1  0
 15 10  1  0
 23 18  1  0
  1 24  1  0
  1 25  1  0
  1 26  1  0
  6 27  1  0
  6 28  1  0
  6 29  1  0
  7 30  1  0
 11 31  1  0
 11 32  1  0
 12 33  1  0
 12 34  1  0
 14 35  1  0
 14 36  1  0
 15 37  1  0
 15 38  1  0
 18 39  1  0
 19 40  1  0
 19 41  1  0
 20 42  1  0
 20 43  1  0
 21 44  1  0
 21 45  1  0
 22 46  1  0
 22 47  1  0
 23 48  1  0
 23 49  1  0
M  END
$$$$
