
     RDKit          3D

 43 46  0  0  0  0  0  0  0  0999 V2000
   -2.5738   -3.0861   -1.1461 C   0  0  0  0  0  0  0  0  0  0  0  0
   -2.6146   -2.0188   -0.1535 N   0  0  0  0  0  0  0  0  0  0  0  0
   -3.0477   -2.1855    1.2188 C   0  0  0  0  0  0  0  0  0  0  0  0
   -2.9794   -0.7821    1.8440 C   0  0  0  0  0  0  0  0  0  0  0  0
   -2.0714    0.0892    0.9215 C   0  0  0  0  0  0  0  0  0  0  0  0
   -0.6272    0.2115    1.5050 C   0  0  0  0  0  0  0  0  0  0  0  0
    0.0392    1.5779    1.2591 C   0  0  0  0  0  0  0  0  0  0  0  0
   -0.4150    2.1857    0.0020 N   0  0  0  0  0  0  0  0  0  0  0  0
   -1.8547    2.3771   -0.2231 C   0  0  0  0  0  0  0  0  0  0  0  0
   -2.7099    1.4805    0.6885 C   0  0  0  0  0  0  0  0  0  0  0  0
    0.5116    2.9254   -0.8164 C   0  0  0  0  0  0  0  0  0  0  0  0
    0.1835    4.0608   -1.2564 O   0  0  0  0  0  0  0  0  0  0  0  0
    1.8474    2.3941   -1.1542 C   0  0  0  0  0  0  0  0  0  0  0  0
    2.9698    3.1598   -1.4520 C   0  0  0  0  0  0  0  0  0  0  0  0
    4.0046    2.2764   -1.7473 C   0  0  0  0  0  0  0  0  0  0  0  0
    3.4600    1.0139   -1.6317 C   0  0  0  0  0  0  0  0  0  0  0  0
    4.0547   -0.2231   -1.8565 C   0  0  0  0  0  0  0  0  0  0  0  0
    3.2487   -1.3611   -1.7100 C   0  0  0  0  0  0  0  0  0  0  0  0
    1.8940   -1.2160   -1.3588 C   0  0  0  0  0  0  0  0  0  0  0  0
    1.3786    0.0291   -1.1561 N   0  0  0  0  0  0  0  0  0  0  0  0
    2.1691    1.0937   -1.2796 N   0  0  0  0  0  0  0  0  0  0  0  0
   -2.0576   -0.7321   -0.3318 C   0  0  0  0  0  0  0  0  0  0  0  0
   -1.5546   -0.3595   -1.4257 O   0  0  0  0  0  0  0  0  0  0  0  0
   -3.1708   -2.7910   -2.0341 H   0  0  0  0  0  0  0  0  0  0  0  0
   -2.9953   -4.0230   -0.7242 H   0  0  0  0  0  0  0  0  0  0  0  0
   -1.5231   -3.2713   -1.4537 H   0  0  0  0  0  0  0  0  0  0  0  0
   -4.0822   -2.5907    1.2535 H   0  0  0  0  0  0  0  0  0  0  0  0
   -2.3523   -2.8747    1.7451 H   0  0  0  0  0  0  0  0  0  0  0  0
   -2.6246   -0.8386    2.8952 H   0  0  0  0  0  0  0  0  0  0  0  0
   -4.0137   -0.3723    1.8764 H   0  0  0  0  0  0  0  0  0  0  0  0
    0.0250   -0.5929    1.0993 H   0  0  0  0  0  0  0  0  0  0  0  0
   -0.6290    0.0572    2.6053 H   0  0  0  0  0  0  0  0  0  0  0  0
   -0.2187    2.2661    2.0936 H   0  0  0  0  0  0  0  0  0  0  0  0
    1.1430    1.4528    1.2759 H   0  0  0  0  0  0  0  0  0  0  0  0
   -2.0910    2.1493   -1.2848 H   0  0  0  0  0  0  0  0  0  0  0  0
   -2.1246    3.4401   -0.0409 H   0  0  0  0  0  0  0  0  0  0  0  0
   -2.8314    1.9864    1.6720 H   0  0  0  0  0  0  0  0  0  0  0  0
   -3.7237    1.3755    0.2421 H   0  0  0  0  0  0  0  0  0  0  0  0
    3.0321    4.2401   -1.4553 H   0  0  0  0  0  0  0  0  0  0  0  0
    5.0183    2.5303   -2.0278 H   0  0  0  0  0  0  0  0  0  0  0  0
    5.0955   -0.3063   -2.1423 H   0  0  0  0  0  0  0  0  0  0  0  0
    3.6646   -2.3464   -1.8755 H   0  0  0  0  0  0  0  0  0  0  0  0
    1.2599   -2.0862   -1.2527 H   0  0  0  0  0  0  0  0  0  0  0  0
  1  2  1  0
  2  3  1  0
  3  4  1  0
  4  5  1  0
  5  6  1  0
  6  7  1  0
  7  8  1  0
  8  9  1  0
  9 10  1  0
  8 11  1  0
 11 12  2  0
 11 13  1  0
 13 14  2  0
 14 15  1  0
 15 16  2  0
 16 17  1  0
 17 18  2  0
 18 19  1  0
 19 20  2  0
 20 21  1  0
  5 22  1  0
 22 23  2  0
 22  2  1  0
 10  5  1  0
 21 13  1  0
 21 16  1  0
  1 24  1  0
  1 25  1  0
  1 26  1  0
  3 27  1  0
  3 28  1  0
  4 29  1  0
  4 30  1  0
  6 31  1  0
  6 32  1  0
  7 33  1  0
  7 34  1  0
  9 35  1  0
  9 36  1  0
 10 37  1  0
 10 38  1  0
 14 39  1  0
 15 40  1  0
 17 41  1  0
 18 42  1  0
 19 43  1  0
M  END
$$$$
