
     RDKit          3D

 36 39  0  0  0  0  0  0  0  0999 V2000
    1.1941   -1.8223    3.0603 O   0  0  0  0  0  0  0  0  0  0  0  0
    0.5398   -1.7457    1.9844 C   0  0  0  0  0  0  0  0  0  0  0  0
    0.7530   -2.7064    0.9925 C   0  0  0  0  0  0  0  0  0  0  0  0
    0.0470   -2.6301   -0.2050 C   0  0  0  0  0  0  0  0  0  0  0  0
   -0.8837   -1.6056   -0.4033 C   0  0  0  0  0  0  0  0  0  0  0  0
   -1.0881   -0.6725    0.6236 C   0  0  0  0  0  0  0  0  0  0  0  0
   -0.3658   -0.7326    1.7857 N   0  0  0  0  0  0  0  0  0  0  0  0
   -0.5465    0.3200    2.8012 C   0  0  0  0  0  0  0  0  0  0  0  0
    0.6672    1.2079    2.8642 C   0  0  0  0  0  0  0  0  0  0  0  0
    1.4931    1.2474    3.9285 N   0  0  0  0  0  0  0  0  0  0  0  0
    2.4887    2.0513    3.4946 C   0  0  0  0  0  0  0  0  0  0  0  0
    2.2986    2.4725    2.2290 N   0  0  0  0  0  0  0  0  0  0  0  0
    1.1498    1.9477    1.8452 N   0  0  0  0  0  0  0  0  0  0  0  0
    0.5952    2.1179    0.5359 C   0  0  0  0  0  0  0  0  0  0  0  0
    1.3321    1.7295   -0.5923 C   0  0  0  0  0  0  0  0  0  0  0  0
    0.7804    1.8597   -1.8707 C   0  0  0  0  0  0  0  0  0  0  0  0
   -0.5020    2.3934   -2.0287 C   0  0  0  0  0  0  0  0  0  0  0  0
   -1.2316    2.8037   -0.9090 C   0  0  0  0  0  0  0  0  0  0  0  0
   -0.6842    2.6706    0.3710 C   0  0  0  0  0  0  0  0  0  0  0  0
   -1.6194   -1.5002   -1.6783 C   0  0  0  0  0  0  0  0  0  0  0  0
   -2.5182   -0.5384   -1.9638 N   0  0  0  0  0  0  0  0  0  0  0  0
   -2.9448   -0.7815   -3.1928 N   0  0  0  0  0  0  0  0  0  0  0  0
   -2.2928   -1.8813   -3.6142 C   0  0  0  0  0  0  0  0  0  0  0  0
   -1.4781   -2.3259   -2.6879 O   0  0  0  0  0  0  0  0  0  0  0  0
    1.4703   -3.5037    1.1448 H   0  0  0  0  0  0  0  0  0  0  0  0
    0.2289   -3.3700   -0.9746 H   0  0  0  0  0  0  0  0  0  0  0  0
   -1.8168    0.1157    0.4798 H   0  0  0  0  0  0  0  0  0  0  0  0
   -1.4425    0.9421    2.5902 H   0  0  0  0  0  0  0  0  0  0  0  0
   -0.7203   -0.1473    3.7951 H   0  0  0  0  0  0  0  0  0  0  0  0
    3.3510    2.3149    4.0918 H   0  0  0  0  0  0  0  0  0  0  0  0
    2.3214    1.3052   -0.4767 H   0  0  0  0  0  0  0  0  0  0  0  0
    1.3452    1.5439   -2.7381 H   0  0  0  0  0  0  0  0  0  0  0  0
   -0.9294    2.4906   -3.0183 H   0  0  0  0  0  0  0  0  0  0  0  0
   -2.2224    3.2211   -1.0326 H   0  0  0  0  0  0  0  0  0  0  0  0
   -1.2550    2.9927    1.2323 H   0  0  0  0  0  0  0  0  0  0  0  0
   -2.4250   -2.3352   -4.5870 H   0  0  0  0  0  0  0  0  0  0  0  0
  1  2  2  0
  2  3  1  0
  3  4  2  0
  4  5  1  0
  5  6  2  0
  6  7  1  0
  7  8  1  0
  8  9  1  0
  9 10  2  0
 10 11  1  0
 11 12  2  0
 12 13  1  0
 13 14  1  0
 14 15  2  0
 15 16  1  0
 16 17  2  0
 17 18  1  0
 18 19  2  0
  5 20  1  0
 20 21  2  0
 21 22  1  0
 22 23  2  0
 23 24  1  0
  7  2  1  0
 13  9  1  0
 14 19  1  0
 24 20  1  0
  3 25  1  0
  4 26  1  0
  6 27  1  0
  8 28  1  0
  8 29  1  0
 11 30  1  0
 15 31  1  0
 16 32  1  0
 17 33  1  0
 18 34  1  0
 19 35  1  0
 23 36  1  0
M  END
$$$$
