
     RDKit          3D

 42 45  0  0  0  0  0  0  0  0999 V2000
   -0.6114    1.7055    2.2004 C   0  0  0  0  0  0  0  0  0  0  0  0
   -0.4331    0.7865    1.0389 C   0  0  0  0  0  0  0  0  0  0  0  0
   -1.2901    0.8602   -0.0273 N   0  0  0  0  0  0  0  0  0  0  0  0
   -1.1882    0.0267   -1.1078 C   0  0  0  0  0  0  0  0  0  0  0  0
   -0.1685   -0.9380   -1.0679 C   0  0  0  0  0  0  0  0  0  0  0  0
    0.2860   -1.9368   -1.9153 C   0  0  0  0  0  0  0  0  0  0  0  0
    1.3434   -2.5520   -1.3319 N   0  0  0  0  0  0  0  0  0  0  0  0
    1.5627   -1.9900   -0.1482 N   0  0  0  0  0  0  0  0  0  0  0  0
    2.6232   -2.3883    0.7407 C   0  0  0  0  0  0  0  0  0  0  0  0
    2.4829   -2.2853    2.1378 C   0  0  0  0  0  0  0  0  0  0  0  0
    3.5214   -2.6868    2.9839 C   0  0  0  0  0  0  0  0  0  0  0  0
    4.7039   -3.2017    2.4476 C   0  0  0  0  0  0  0  0  0  0  0  0
    4.8476   -3.3230    1.0637 C   0  0  0  0  0  0  0  0  0  0  0  0
    3.8117   -2.9238    0.2137 C   0  0  0  0  0  0  0  0  0  0  0  0
    0.6538   -1.0111    0.0179 C   0  0  0  0  0  0  0  0  0  0  0  0
    0.5479   -0.1613    1.0669 N   0  0  0  0  0  0  0  0  0  0  0  0
   -2.1161    0.1755   -2.2030 N   0  0  0  0  0  0  0  0  0  0  0  0
   -3.2612    1.0701   -2.1239 C   0  0  0  0  0  0  0  0  0  0  0  0
   -4.0295    0.8780   -3.4237 C   0  0  0  0  0  0  0  0  0  0  0  0
   -3.0213    0.2650   -4.3975 C   0  0  2  0  0  0  0  0  0  0  0  0
   -3.6837   -0.6708   -5.4177 C   0  0  0  0  0  0  0  0  0  0  0  0
   -2.7191   -1.1600   -6.3080 O   0  0  0  0  0  0  0  0  0  0  0  0
   -1.9929   -0.4432   -3.5130 C   0  0  0  0  0  0  0  0  0  0  0  0
    0.3666    1.8972    2.6903 H   0  0  0  0  0  0  0  0  0  0  0  0
   -1.3027    1.2422    2.9346 H   0  0  0  0  0  0  0  0  0  0  0  0
   -1.0351    2.6740    1.8604 H   0  0  0  0  0  0  0  0  0  0  0  0
   -0.0958   -2.2149   -2.8842 H   0  0  0  0  0  0  0  0  0  0  0  0
    1.5653   -1.9233    2.5797 H   0  0  0  0  0  0  0  0  0  0  0  0
    3.4058   -2.6062    4.0571 H   0  0  0  0  0  0  0  0  0  0  0  0
    5.5058   -3.5128    3.1045 H   0  0  0  0  0  0  0  0  0  0  0  0
    5.7621   -3.7268    0.6488 H   0  0  0  0  0  0  0  0  0  0  0  0
    3.9410   -3.0208   -0.8568 H   0  0  0  0  0  0  0  0  0  0  0  0
   -3.8984    0.8095   -1.2508 H   0  0  0  0  0  0  0  0  0  0  0  0
   -2.9084    2.1207   -2.0345 H   0  0  0  0  0  0  0  0  0  0  0  0
   -4.4265    1.8436   -3.8059 H   0  0  0  0  0  0  0  0  0  0  0  0
   -4.8781    0.1807   -3.2438 H   0  0  0  0  0  0  0  0  0  0  0  0
   -2.5144    1.0940   -4.9424 H   0  0  0  0  0  0  0  0  0  0  0  0
   -4.4556   -0.1030   -5.9842 H   0  0  0  0  0  0  0  0  0  0  0  0
   -4.1795   -1.5200   -4.8948 H   0  0  0  0  0  0  0  0  0  0  0  0
   -3.2026   -1.7561   -6.9372 H   0  0  0  0  0  0  0  0  0  0  0  0
   -0.9724   -0.2851   -3.9242 H   0  0  0  0  0  0  0  0  0  0  0  0
   -2.2201   -1.5277   -3.4251 H   0  0  0  0  0  0  0  0  0  0  0  0
  1  2  1  0
  2  3  2  0
  3  4  1  0
  4  5  2  0
  5  6  1  0
  6  7  2  0
  7  8  1  0
  8  9  1  0
  9 10  2  0
 10 11  1  0
 11 12  2  0
 12 13  1  0
 13 14  2  0
  8 15  1  0
 15 16  2  0
  4 17  1  0
 17 18  1  0
 18 19  1  0
 19 20  1  0
 20 21  1  0
 21 22  1  0
 20 23  1  0
  2 16  1  0
  5 15  1  0
  9 14  1  0
 23 17  1  0
  1 24  1  0
  1 25  1  0
  1 26  1  0
  6 27  1  0
 10 28  1  0
 11 29  1  0
 12 30  1  0
 13 31  1  0
 14 32  1  0
 18 33  1  0
 18 34  1  0
 19 35  1  0
 19 36  1  0
 20 37  1  6
 21 38  1  0
 21 39  1  0
 22 40  1  0
 23 41  1  0
 23 42  1  0
M  END
$$$$
