
     RDKit          3D

 53 57  0  0  0  0  0  0  0  0999 V2000
    1.2272   -3.4218    3.0401 O   0  0  0  0  0  0  0  0  0  0  0  0
    0.9417   -2.4515    2.2885 C   0  0  0  0  0  0  0  0  0  0  0  0
    1.5732   -2.3532    0.9557 C   0  0  0  0  0  0  0  0  0  0  0  0
    1.9006   -3.5374    0.2434 C   0  0  0  0  0  0  0  0  0  0  0  0
    2.5052   -3.4717   -1.0249 C   0  0  0  0  0  0  0  0  0  0  0  0
    2.7811   -2.2128   -1.5486 C   0  0  0  0  0  0  0  0  0  0  0  0
    3.3675   -1.8473   -2.7396 C   0  0  0  0  0  0  0  0  0  0  0  0
    3.4054   -0.4502   -2.7152 C   0  0  0  0  0  0  0  0  0  0  0  0
    2.8650    0.0183   -1.5612 N   0  0  0  0  0  0  0  0  0  0  0  0
    2.4879   -1.0661   -0.8642 C   0  0  0  0  0  0  0  0  0  0  0  0
    1.8853   -1.0947    0.3921 C   0  0  0  0  0  0  0  0  0  0  0  0
    3.9598    0.4158   -3.7865 C   0  0  0  0  0  0  0  0  0  0  0  0
    4.3577    1.7370   -3.5060 C   0  0  0  0  0  0  0  0  0  0  0  0
    4.8816    2.5498   -4.5162 C   0  0  0  0  0  0  0  0  0  0  0  0
    5.0148    2.0563   -5.8151 C   0  0  0  0  0  0  0  0  0  0  0  0
    4.6252    0.7479   -6.1069 C   0  0  0  0  0  0  0  0  0  0  0  0
    4.1012   -0.0699   -5.1010 C   0  0  0  0  0  0  0  0  0  0  0  0
   -0.0246   -1.4947    2.7317 N   0  0  0  0  0  0  0  0  0  0  0  0
   -0.8192   -0.3773    2.1824 C   0  0  0  0  0  0  0  0  0  0  0  0
   -1.6736   -0.1783    3.3999 C   0  0  0  0  0  0  0  0  0  0  0  0
   -0.8497   -1.3061    3.9402 C   0  0  0  0  0  0  0  0  0  0  0  0
   -3.0909   -0.5472    3.2179 N   0  0  0  0  0  0  0  0  0  0  0  0
   -3.8471    0.5315    2.5532 C   0  0  0  0  0  0  0  0  0  0  0  0
   -5.1914   -0.0047    2.0296 C   0  0  0  0  0  0  0  0  0  0  0  0
   -6.0418    1.1302    1.4108 C   0  0  0  0  0  0  0  0  0  0  0  0
   -5.5820    2.4295    1.7486 O   0  0  0  0  0  0  0  0  0  0  0  0
   -5.3485    2.5159    3.1395 C   0  0  0  0  0  0  0  0  0  0  0  0
   -4.1023    1.7020    3.5313 C   0  0  0  0  0  0  0  0  0  0  0  0
    1.6758   -4.5093    0.6647 H   0  0  0  0  0  0  0  0  0  0  0  0
    2.7487   -4.3726   -1.5738 H   0  0  0  0  0  0  0  0  0  0  0  0
    3.7364   -2.5116   -3.5096 H   0  0  0  0  0  0  0  0  0  0  0  0
    2.7396    1.0127   -1.2692 H   0  0  0  0  0  0  0  0  0  0  0  0
    1.7049   -0.1720    0.9230 H   0  0  0  0  0  0  0  0  0  0  0  0
    4.2851    2.1411   -2.5057 H   0  0  0  0  0  0  0  0  0  0  0  0
    5.1886    3.5628   -4.2900 H   0  0  0  0  0  0  0  0  0  0  0  0
    5.4207    2.6873   -6.5951 H   0  0  0  0  0  0  0  0  0  0  0  0
    4.7261    0.3671   -7.1151 H   0  0  0  0  0  0  0  0  0  0  0  0
    3.7937   -1.0743   -5.3594 H   0  0  0  0  0  0  0  0  0  0  0  0
   -1.3805   -0.6993    1.2772 H   0  0  0  0  0  0  0  0  0  0  0  0
   -0.1849    0.5135    1.9863 H   0  0  0  0  0  0  0  0  0  0  0  0
   -1.5050    0.7781    3.9416 H   0  0  0  0  0  0  0  0  0  0  0  0
   -0.2181   -0.9955    4.8018 H   0  0  0  0  0  0  0  0  0  0  0  0
   -1.4368   -2.2244    4.1664 H   0  0  0  0  0  0  0  0  0  0  0  0
   -3.1523   -1.4193    2.6385 H   0  0  0  0  0  0  0  0  0  0  0  0
   -3.2784    0.9136    1.6734 H   0  0  0  0  0  0  0  0  0  0  0  0
   -5.0166   -0.7962    1.2680 H   0  0  0  0  0  0  0  0  0  0  0  0
   -5.7533   -0.4642    2.8730 H   0  0  0  0  0  0  0  0  0  0  0  0
   -6.0052    1.0364    0.3047 H   0  0  0  0  0  0  0  0  0  0  0  0
   -7.1083    1.0162    1.7073 H   0  0  0  0  0  0  0  0  0  0  0  0
   -5.1891    3.5811    3.4099 H   0  0  0  0  0  0  0  0  0  0  0  0
   -6.2377    2.1691    3.7163 H   0  0  0  0  0  0  0  0  0  0  0  0
   -4.2373    1.3174    4.5662 H   0  0  0  0  0  0  0  0  0  0  0  0
   -3.2168    2.3740    3.5300 H   0  0  0  0  0  0  0  0  0  0  0  0
  1  2  2  0
  2  3  1  0
  3  4  2  0
  4  5  1  0
  5  6  2  0
  6  7  1  0
  7  8  2  0
  8  9  1  0
  9 10  1  0
 10 11  2  0
  8 12  1  0
 12 13  2  0
 13 14  1  0
 14 15  2  0
 15 16  1  0
 16 17  2  0
  2 18  1  0
 18 19  1  0
 19 20  1  0
 20 21  1  0
 20 22  1  0
 22 23  1  0
 23 24  1  0
 24 25  1  0
 25 26  1  0
 26 27  1  0
 27 28  1  0
  3 11  1  0
  6 10  1  0
 12 17  1  0
 21 18  1  0
 28 23  1  0
  4 29  1  0
  5 30  1  0
  7 31  1  0
  9 32  1  0
 11 33  1  0
 13 34  1  0
 14 35  1  0
 15 36  1  0
 16 37  1  0
 17 38  1  0
 19 39  1  0
 19 40  1  0
 20 41  1  0
 21 42  1  0
 21 43  1  0
 22 44  1  0
 23 45  1  0
 24 46  1  0
 24 47  1  0
 25 48  1  0
 25 49  1  0
 27 50  1  0
 27 51  1  0
 28 52  1  0
 28 53  1  0
M  END
$$$$
