
     RDKit          3D

 42 43  0  0  0  0  0  0  0  0999 V2000
   -5.7774   -1.7204   -3.0949 C   0  0  0  0  0  0  0  0  0  0  0  0
   -4.9217   -2.8153   -2.4595 C   0  0  0  0  0  0  0  0  0  0  0  0
   -3.4211   -2.5276   -2.5974 C   0  0  0  0  0  0  0  0  0  0  0  0
   -3.0065   -1.4046   -1.7552 N   0  0  0  0  0  0  0  0  0  0  0  0
   -1.6537   -0.9290   -1.7601 C   0  0  0  0  0  0  0  0  0  0  0  0
   -0.7849   -1.5049   -2.4716 O   0  0  0  0  0  0  0  0  0  0  0  0
   -1.2520    0.2285   -0.8783 C   0  0  0  0  0  0  0  0  0  0  0  0
   -0.4172    1.2755   -1.6615 C   0  0  0  0  0  0  0  0  0  0  0  0
    1.0923    1.1060   -1.4497 C   0  0  0  0  0  0  0  0  0  0  0  0
    1.4277    1.1251   -0.0180 N   0  0  0  0  0  0  0  0  0  0  0  0
    0.4128    0.7468    0.9790 C   0  0  0  0  0  0  0  0  0  0  0  0
   -0.5390   -0.2968    0.3901 C   0  0  0  0  0  0  0  0  0  0  0  0
    2.7960    1.3457    0.3768 C   0  0  0  0  0  0  0  0  0  0  0  0
    3.7275    0.9917   -0.3969 O   0  0  0  0  0  0  0  0  0  0  0  0
    3.1397    1.9791    1.6701 C   0  0  0  0  0  0  0  0  0  0  0  0
    2.3346    2.9986    2.2072 C   0  0  0  0  0  0  0  0  0  0  0  0
    2.6731    3.5985    3.4236 C   0  0  0  0  0  0  0  0  0  0  0  0
    3.8215    3.1953    4.1091 C   0  0  0  0  0  0  0  0  0  0  0  0
    4.6395    2.1951    3.5750 C   0  0  0  0  0  0  0  0  0  0  0  0
    6.0867    1.6961    4.4315 Cl  0  0  0  0  0  0  0  0  0  0  0  0
    4.3036    1.5922    2.3574 C   0  0  0  0  0  0  0  0  0  0  0  0
   -6.8511   -1.9841   -2.9923 H   0  0  0  0  0  0  0  0  0  0  0  0
   -5.5390   -1.6232   -4.1755 H   0  0  0  0  0  0  0  0  0  0  0  0
   -5.6056   -0.7451   -2.5936 H   0  0  0  0  0  0  0  0  0  0  0  0
   -5.1486   -3.7785   -2.9655 H   0  0  0  0  0  0  0  0  0  0  0  0
   -5.1891   -2.9239   -1.3859 H   0  0  0  0  0  0  0  0  0  0  0  0
   -3.1768   -2.3100   -3.6602 H   0  0  0  0  0  0  0  0  0  0  0  0
   -2.8553   -3.4340   -2.2917 H   0  0  0  0  0  0  0  0  0  0  0  0
   -3.6978   -0.9453   -1.1198 H   0  0  0  0  0  0  0  0  0  0  0  0
   -2.1798    0.7475   -0.5489 H   0  0  0  0  0  0  0  0  0  0  0  0
   -0.6971    2.2930   -1.3080 H   0  0  0  0  0  0  0  0  0  0  0  0
   -0.6488    1.2432   -2.7491 H   0  0  0  0  0  0  0  0  0  0  0  0
    1.4326    0.1474   -1.8972 H   0  0  0  0  0  0  0  0  0  0  0  0
    1.6149    1.9396   -1.9679 H   0  0  0  0  0  0  0  0  0  0  0  0
   -0.1638    1.6448    1.2872 H   0  0  0  0  0  0  0  0  0  0  0  0
    0.8967    0.3107    1.8804 H   0  0  0  0  0  0  0  0  0  0  0  0
    0.0579   -1.2066    0.1542 H   0  0  0  0  0  0  0  0  0  0  0  0
   -1.2958   -0.5824    1.1529 H   0  0  0  0  0  0  0  0  0  0  0  0
    1.4590    3.3487    1.6763 H   0  0  0  0  0  0  0  0  0  0  0  0
    2.0483    4.3826    3.8315 H   0  0  0  0  0  0  0  0  0  0  0  0
    4.0781    3.6648    5.0502 H   0  0  0  0  0  0  0  0  0  0  0  0
    4.9426    0.8153    1.9552 H   0  0  0  0  0  0  0  0  0  0  0  0
  1  2  1  0
  2  3  1  0
  3  4  1  0
  4  5  1  0
  5  6  2  0
  5  7  1  0
  7  8  1  0
  8  9  1  0
  9 10  1  0
 10 11  1  0
 11 12  1  0
 10 13  1  0
 13 14  2  0
 13 15  1  0
 15 16  2  0
 16 17  1  0
 17 18  2  0
 18 19  1  0
 19 20  1  0
 19 21  2  0
 12  7  1  0
 15 21  1  0
  1 22  1  0
  1 23  1  0
  1 24  1  0
  2 25  1  0
  2 26  1  0
  3 27  1  0
  3 28  1  0
  4 29  1  0
  7 30  1  0
  8 31  1  0
  8 32  1  0
  9 33  1  0
  9 34  1  0
 11 35  1  0
 11 36  1  0
 12 37  1  0
 12 38  1  0
 16 39  1  0
 17 40  1  0
 18 41  1  0
 21 42  1  0
M  END
$$$$
