
     RDKit          3D

 36 38  0  0  0  0  0  0  0  0999 V2000
    0.0193   -0.1208   -1.4689 O   0  0  0  0  0  0  0  0  0  0  0  0
   -1.0607    0.1807   -0.8931 C   0  0  0  0  0  0  0  0  0  0  0  0
   -1.4420   -0.4781    0.3256 N   0  0  0  0  0  0  0  0  0  0  0  0
   -0.5461   -1.2705    1.1238 C   0  0  0  0  0  0  0  0  0  0  0  0
   -1.0519   -2.3610    1.8463 C   0  0  0  0  0  0  0  0  0  0  0  0
   -0.2079   -3.1291    2.6518 C   0  0  0  0  0  0  0  0  0  0  0  0
    1.1475   -2.8090    2.7535 C   0  0  0  0  0  0  0  0  0  0  0  0
    1.6700   -1.7141    2.0481 C   0  0  0  0  0  0  0  0  0  0  0  0
    0.8157   -0.9378    1.2475 C   0  0  0  0  0  0  0  0  0  0  0  0
    3.1216   -1.3390    2.1989 C   0  0  0  0  0  0  0  0  0  0  0  0
    3.3401   -0.4432    3.4182 C   0  0  0  0  0  0  0  0  0  0  0  0
    2.6773    0.7788    3.2435 O   0  0  0  0  0  0  0  0  0  0  0  0
   -1.9778    1.1379   -1.5336 C   0  0  0  0  0  0  0  0  0  0  0  0
   -3.3533    0.9544   -1.6714 C   0  0  0  0  0  0  0  0  0  0  0  0
   -3.8837    1.9087   -2.4671 N   0  0  0  0  0  0  0  0  0  0  0  0
   -2.8563    2.6918   -2.8274 C   0  0  0  0  0  0  0  0  0  0  0  0
   -2.9293    3.7539   -3.6647 N   0  0  0  0  0  0  0  0  0  0  0  0
   -1.7848    4.4399   -3.9477 C   0  0  0  0  0  0  0  0  0  0  0  0
   -0.5980    4.0750   -3.3725 N   0  0  0  0  0  0  0  0  0  0  0  0
   -0.5103    3.0153   -2.5169 C   0  0  0  0  0  0  0  0  0  0  0  0
    0.7052    2.7498   -1.8906 O   0  0  0  0  0  0  0  0  0  0  0  0
   -1.6765    2.2769   -2.2721 C   0  0  0  0  0  0  0  0  0  0  0  0
   -2.4423   -0.4263    0.6235 H   0  0  0  0  0  0  0  0  0  0  0  0
   -2.1014   -2.6189    1.7789 H   0  0  0  0  0  0  0  0  0  0  0  0
   -0.6065   -3.9715    3.2023 H   0  0  0  0  0  0  0  0  0  0  0  0
    1.7883   -3.4077    3.3891 H   0  0  0  0  0  0  0  0  0  0  0  0
    1.2094   -0.0622    0.7476 H   0  0  0  0  0  0  0  0  0  0  0  0
    3.4831   -0.8170    1.2858 H   0  0  0  0  0  0  0  0  0  0  0  0
    3.7353   -2.2595    2.3108 H   0  0  0  0  0  0  0  0  0  0  0  0
    4.4311   -0.2600    3.5375 H   0  0  0  0  0  0  0  0  0  0  0  0
    2.9650   -0.9541    4.3336 H   0  0  0  0  0  0  0  0  0  0  0  0
    2.8501    1.3052    4.0668 H   0  0  0  0  0  0  0  0  0  0  0  0
   -3.9257    0.1331   -1.2602 H   0  0  0  0  0  0  0  0  0  0  0  0
   -4.8806    1.9968   -2.7645 H   0  0  0  0  0  0  0  0  0  0  0  0
   -1.8184    5.2872   -4.6186 H   0  0  0  0  0  0  0  0  0  0  0  0
    0.7836    2.1436   -1.0867 H   0  0  0  0  0  0  0  0  0  0  0  0
  1  2  2  0
  2  3  1  0
  3  4  1  0
  4  5  2  0
  5  6  1  0
  6  7  2  0
  7  8  1  0
  8  9  2  0
  8 10  1  0
 10 11  1  0
 11 12  1  0
  2 13  1  0
 13 14  2  0
 14 15  1  0
 15 16  1  0
 16 17  2  0
 17 18  1  0
 18 19  2  0
 19 20  1  0
 20 21  1  0
 20 22  2  0
  4  9  1  0
 22 13  1  0
 16 22  1  0
  3 23  1  0
  5 24  1  0
  6 25  1  0
  7 26  1  0
  9 27  1  0
 10 28  1  0
 10 29  1  0
 11 30  1  0
 11 31  1  0
 12 32  1  0
 14 33  1  0
 15 34  1  0
 18 35  1  0
 21 36  1  0
M  END
$$$$
