
     RDKit          3D

 42 46  0  0  0  0  0  0  0  0999 V2000
    4.5883    2.7311    3.5352 C   0  0  0  0  0  0  0  0  0  0  0  0
    3.6553    1.8199    4.0414 C   0  0  0  0  0  0  0  0  0  0  0  0
    2.8108    1.1218    3.1721 C   0  0  0  0  0  0  0  0  0  0  0  0
    2.8974    1.3345    1.7913 C   0  0  0  0  0  0  0  0  0  0  0  0
    2.0768    0.6589    0.9430 N   0  0  0  0  0  0  0  0  0  0  0  0
    2.1264    0.8388   -0.4056 C   0  0  0  0  0  0  0  0  0  0  0  0
    3.0475    1.7462   -0.9520 C   0  0  0  0  0  0  0  0  0  0  0  0
    3.9044    2.4537   -0.1061 C   0  0  0  0  0  0  0  0  0  0  0  0
    3.8383    2.2547    1.2781 C   0  0  0  0  0  0  0  0  0  0  0  0
    4.6825    2.9502    2.1567 C   0  0  0  0  0  0  0  0  0  0  0  0
    1.2079    0.0770   -1.2646 C   0  0  0  0  0  0  0  0  0  0  0  0
    1.1418    0.1868   -2.6075 N   0  0  0  0  0  0  0  0  0  0  0  0
    0.1976   -0.6517   -3.0060 N   0  0  0  0  0  0  0  0  0  0  0  0
   -0.2709   -1.2373   -1.8893 C   0  0  0  0  0  0  0  0  0  0  0  0
   -1.3156   -2.2147   -1.8853 N   0  0  0  0  0  0  0  0  0  0  0  0
   -1.8535   -2.7730   -0.6418 C   0  0  0  0  0  0  0  0  0  0  0  0
   -2.0729   -4.2929   -0.7825 C   0  0  0  0  0  0  0  0  0  0  0  0
   -3.3238   -4.6066   -1.6104 C   0  0  0  0  0  0  0  0  0  0  0  0
   -4.4624   -3.9368   -1.0722 O   0  0  0  0  0  0  0  0  0  0  0  0
   -4.3843   -2.6532   -0.5211 C   0  0  0  0  0  0  0  0  0  0  0  0
   -5.5616   -1.9743   -0.1878 C   0  0  0  0  0  0  0  0  0  0  0  0
   -5.5006   -0.6962    0.3744 C   0  0  0  0  0  0  0  0  0  0  0  0
   -4.2623   -0.0925    0.6084 C   0  0  0  0  0  0  0  0  0  0  0  0
   -3.0813   -0.7665    0.2842 C   0  0  0  0  0  0  0  0  0  0  0  0
   -3.1318   -2.0542   -0.2745 C   0  0  0  0  0  0  0  0  0  0  0  0
    0.3409   -0.7990   -0.8161 O   0  0  0  0  0  0  0  0  0  0  0  0
    5.2395    3.2684    4.2125 H   0  0  0  0  0  0  0  0  0  0  0  0
    3.5867    1.6547    5.1088 H   0  0  0  0  0  0  0  0  0  0  0  0
    2.0913    0.4183    3.5728 H   0  0  0  0  0  0  0  0  0  0  0  0
    3.1046    1.9061   -2.0215 H   0  0  0  0  0  0  0  0  0  0  0  0
    4.6147    3.1526   -0.5315 H   0  0  0  0  0  0  0  0  0  0  0  0
    5.4097    3.6594    1.7796 H   0  0  0  0  0  0  0  0  0  0  0  0
   -1.7917   -2.4223   -2.7915 H   0  0  0  0  0  0  0  0  0  0  0  0
   -1.1172   -2.6310    0.1810 H   0  0  0  0  0  0  0  0  0  0  0  0
   -2.1976   -4.7368    0.2299 H   0  0  0  0  0  0  0  0  0  0  0  0
   -1.1825   -4.7649   -1.2523 H   0  0  0  0  0  0  0  0  0  0  0  0
   -3.5107   -5.7010   -1.6065 H   0  0  0  0  0  0  0  0  0  0  0  0
   -3.1769   -4.2894   -2.6639 H   0  0  0  0  0  0  0  0  0  0  0  0
   -6.5235   -2.4374   -0.3667 H   0  0  0  0  0  0  0  0  0  0  0  0
   -6.4134   -0.1728    0.6286 H   0  0  0  0  0  0  0  0  0  0  0  0
   -4.2175    0.8982    1.0421 H   0  0  0  0  0  0  0  0  0  0  0  0
   -2.1288   -0.2868    0.4709 H   0  0  0  0  0  0  0  0  0  0  0  0
  1  2  2  0
  2  3  1  0
  3  4  2  0
  4  5  1  0
  5  6  2  0
  6  7  1  0
  7  8  2  0
  8  9  1  0
  9 10  2  0
  6 11  1  0
 11 12  2  0
 12 13  1  0
 13 14  2  0
 14 15  1  0
 15 16  1  0
 16 17  1  0
 17 18  1  0
 18 19  1  0
 19 20  1  0
 20 21  2  0
 21 22  1  0
 22 23  2  0
 23 24  1  0
 24 25  2  0
 14 26  1  0
  1 10  1  0
  4  9  1  0
 26 11  1  0
 25 16  1  0
 20 25  1  0
  1 27  1  0
  2 28  1  0
  3 29  1  0
  7 30  1  0
  8 31  1  0
 10 32  1  0
 15 33  1  0
 16 34  1  0
 17 35  1  0
 17 36  1  0
 18 37  1  0
 18 38  1  0
 21 39  1  0
 22 40  1  0
 23 41  1  0
 24 42  1  0
M  END
$$$$
