
     RDKit          3D

 52 55  0  0  0  0  0  0  0  0999 V2000
   -0.9668    3.8172   -0.8202 C   0  0  0  0  0  0  0  0  0  0  0  0
   -0.4224    2.9933    0.2699 N   0  0  0  0  0  0  0  0  0  0  0  0
   -1.4744    2.1431    0.8462 C   0  0  0  0  0  0  0  0  0  0  0  0
   -0.9700    1.5162    2.1503 C   0  0  0  0  0  0  0  0  0  0  0  0
    0.5439    1.2321    2.1263 C   0  0  0  0  0  0  0  0  0  0  0  0
    1.0564    0.9568    0.6917 C   0  0  0  0  0  0  0  0  0  0  0  0
    0.7201    2.1830   -0.2160 C   0  0  0  0  0  0  0  0  0  0  0  0
    2.5255    0.6607    0.6576 N   0  0  0  0  0  0  0  0  0  0  0  0
    3.0408    0.3872   -0.7017 C   0  0  0  0  0  0  0  0  0  0  0  0
    2.4213   -0.8716   -1.3231 C   0  0  0  0  0  0  0  0  0  0  0  0
    2.2058   -1.9649   -0.3555 N   0  0  0  0  0  0  0  0  0  0  0  0
    2.3145   -1.7938    1.1050 C   0  0  0  0  0  0  0  0  0  0  0  0
    2.9526   -0.4616    1.5171 C   0  0  0  0  0  0  0  0  0  0  0  0
    1.7042   -3.2284   -0.8340 C   0  0  0  0  0  0  0  0  0  0  0  0
    2.0008   -4.2906   -0.2216 O   0  0  0  0  0  0  0  0  0  0  0  0
    0.7672   -3.3089   -2.0099 C   0  0  0  0  0  0  0  0  0  0  0  0
   -0.4688   -2.4962   -1.7537 C   0  0  0  0  0  0  0  0  0  0  0  0
   -1.0329   -1.6500   -2.7082 C   0  0  0  0  0  0  0  0  0  0  0  0
   -2.3533   -0.8867   -2.0009 S   0  0  0  0  0  0  0  0  0  0  0  0
   -2.1625   -1.6735   -0.5260 C   0  0  0  0  0  0  0  0  0  0  0  0
   -1.1037   -2.5116   -0.5498 N   0  0  0  0  0  0  0  0  0  0  0  0
   -2.9835   -1.4499    0.6682 C   0  0  0  0  0  0  0  0  0  0  0  0
   -4.0656   -0.5848    0.7730 C   0  0  0  0  0  0  0  0  0  0  0  0
   -4.6264   -0.5557    2.0547 C   0  0  0  0  0  0  0  0  0  0  0  0
   -3.9895   -1.3926    2.9621 C   0  0  0  0  0  0  0  0  0  0  0  0
   -2.7261   -2.1677    2.1670 S   0  0  0  0  0  0  0  0  0  0  0  0
   -0.1613    4.4369   -1.2709 H   0  0  0  0  0  0  0  0  0  0  0  0
   -1.7365    4.5138   -0.4232 H   0  0  0  0  0  0  0  0  0  0  0  0
   -1.4253    3.1845   -1.6130 H   0  0  0  0  0  0  0  0  0  0  0  0
   -1.7646    1.3436    0.1272 H   0  0  0  0  0  0  0  0  0  0  0  0
   -2.3854    2.7410    1.0747 H   0  0  0  0  0  0  0  0  0  0  0  0
   -1.5254    0.5720    2.3292 H   0  0  0  0  0  0  0  0  0  0  0  0
   -1.1921    2.1967    3.0003 H   0  0  0  0  0  0  0  0  0  0  0  0
    1.0950    2.1011    2.5486 H   0  0  0  0  0  0  0  0  0  0  0  0
    0.7101    0.3622    2.7918 H   0  0  0  0  0  0  0  0  0  0  0  0
    0.4807    0.0843    0.3086 H   0  0  0  0  0  0  0  0  0  0  0  0
    0.5263    1.8059   -1.2473 H   0  0  0  0  0  0  0  0  0  0  0  0
    1.6044    2.8562   -0.2601 H   0  0  0  0  0  0  0  0  0  0  0  0
    2.8817    1.2540   -1.3753 H   0  0  0  0  0  0  0  0  0  0  0  0
    4.1470    0.2632   -0.6659 H   0  0  0  0  0  0  0  0  0  0  0  0
    1.4552   -0.5869   -1.7862 H   0  0  0  0  0  0  0  0  0  0  0  0
    3.0892   -1.2276   -2.1372 H   0  0  0  0  0  0  0  0  0  0  0  0
    1.2989   -1.8640    1.5509 H   0  0  0  0  0  0  0  0  0  0  0  0
    2.9258   -2.6165    1.5341 H   0  0  0  0  0  0  0  0  0  0  0  0
    2.7623   -0.2482    2.5873 H   0  0  0  0  0  0  0  0  0  0  0  0
    4.0600   -0.5697    1.4636 H   0  0  0  0  0  0  0  0  0  0  0  0
    1.2908   -2.9495   -2.9218 H   0  0  0  0  0  0  0  0  0  0  0  0
    0.4660   -4.3638   -2.1869 H   0  0  0  0  0  0  0  0  0  0  0  0
   -0.6668   -1.4844   -3.7147 H   0  0  0  0  0  0  0  0  0  0  0  0
   -4.4362    0.0160   -0.0435 H   0  0  0  0  0  0  0  0  0  0  0  0
   -5.4723    0.0650    2.3168 H   0  0  0  0  0  0  0  0  0  0  0  0
   -4.2572   -1.5161    4.0022 H   0  0  0  0  0  0  0  0  0  0  0  0
  1  2  1  0
  2  3  1  0
  3  4  1  0
  4  5  1  0
  5  6  1  0
  6  7  1  0
  6  8  1  0
  8  9  1  0
  9 10  1  0
 10 11  1  0
 11 12  1  0
 12 13  1  0
 11 14  1  0
 14 15  2  0
 14 16  1  0
 16 17  1  0
 17 18  2  0
 18 19  1  0
 19 20  1  0
 20 21  2  0
 20 22  1  0
 22 23  2  0
 23 24  1  0
 24 25  2  0
 25 26  1  0
  7  2  1  0
 13  8  1  0
 21 17  1  0
 26 22  1  0
  1 27  1  0
  1 28  1  0
  1 29  1  0
  3 30  1  0
  3 31  1  0
  4 32  1  0
  4 33  1  0
  5 34  1  0
  5 35  1  0
  6 36  1  0
  7 37  1  0
  7 38  1  0
  9 39  1  0
  9 40  1  0
 10 41  1  0
 10 42  1  0
 12 43  1  0
 12 44  1  0
 13 45  1  0
 13 46  1  0
 16 47  1  0
 16 48  1  0
 18 49  1  0
 23 50  1  0
 24 51  1  0
 25 52  1  0
M  END
$$$$
