
     RDKit          3D

 48 51  0  0  0  0  0  0  0  0999 V2000
    0.9133   -2.2118    2.0233 C   0  0  0  0  0  0  0  0  0  0  0  0
    0.5133   -0.7413    1.9092 C   0  0  0  0  0  0  0  0  0  0  0  0
   -0.6017   -0.5094    0.8593 C   0  0  0  0  0  0  0  0  0  0  0  0
   -1.9940   -0.9104    1.3750 C   0  0  0  0  0  0  0  0  0  0  0  0
   -2.4496    0.0208    2.4576 C   0  0  0  0  0  0  0  0  0  0  0  0
   -3.2419   -0.4518    3.5157 C   0  0  0  0  0  0  0  0  0  0  0  0
   -3.6755    0.4240    4.5139 C   0  0  0  0  0  0  0  0  0  0  0  0
   -3.3323    1.7763    4.4551 C   0  0  0  0  0  0  0  0  0  0  0  0
   -2.5566    2.2565    3.3965 C   0  0  0  0  0  0  0  0  0  0  0  0
   -2.1049    1.3831    2.3940 C   0  0  0  0  0  0  0  0  0  0  0  0
   -1.3136    1.9353    1.2316 C   0  0  0  0  0  0  0  0  0  0  0  0
   -0.6092    0.9065    0.4380 N   0  0  0  0  0  0  0  0  0  0  0  0
    0.1346    1.3577   -0.7224 C   0  0  0  0  0  0  0  0  0  0  0  0
   -0.1245    2.4911   -1.2157 O   0  0  0  0  0  0  0  0  0  0  0  0
    1.2045    0.5156   -1.3958 C   0  0  0  0  0  0  0  0  0  0  0  0
    2.4693    1.3663   -1.6810 C   0  0  0  0  0  0  0  0  0  0  0  0
    3.7844    0.5537   -1.6796 C   0  0  0  0  0  0  0  0  0  0  0  0
    3.6767   -0.8654   -2.1789 C   0  0  0  0  0  0  0  0  0  0  0  0
    4.5348   -1.8379   -1.8150 N   0  0  0  0  0  0  0  0  0  0  0  0
    4.1528   -2.9458   -2.4352 N   0  0  0  0  0  0  0  0  0  0  0  0
    3.0696   -2.6353   -3.1727 C   0  0  0  0  0  0  0  0  0  0  0  0
    2.7497   -1.3369   -3.0358 N   0  0  0  0  0  0  0  0  0  0  0  0
    1.6652   -0.6163   -3.6946 C   0  0  0  0  0  0  0  0  0  0  0  0
    0.6184   -0.1243   -2.6819 C   0  0  0  0  0  0  0  0  0  0  0  0
    1.7562   -2.3103    2.7393 H   0  0  0  0  0  0  0  0  0  0  0  0
    1.2435   -2.6007    1.0364 H   0  0  0  0  0  0  0  0  0  0  0  0
    0.0672   -2.8238    2.3975 H   0  0  0  0  0  0  0  0  0  0  0  0
    0.2003   -0.3687    2.9079 H   0  0  0  0  0  0  0  0  0  0  0  0
    1.4189   -0.1642    1.6236 H   0  0  0  0  0  0  0  0  0  0  0  0
   -0.4160   -1.1586   -0.0221 H   0  0  0  0  0  0  0  0  0  0  0  0
   -1.9838   -1.9615    1.7335 H   0  0  0  0  0  0  0  0  0  0  0  0
   -2.7220   -0.8530    0.5369 H   0  0  0  0  0  0  0  0  0  0  0  0
   -3.5216   -1.4967    3.5687 H   0  0  0  0  0  0  0  0  0  0  0  0
   -4.2821    0.0553    5.3310 H   0  0  0  0  0  0  0  0  0  0  0  0
   -3.6743    2.4547    5.2260 H   0  0  0  0  0  0  0  0  0  0  0  0
   -2.3110    3.3106    3.3549 H   0  0  0  0  0  0  0  0  0  0  0  0
   -0.5660    2.6640    1.6147 H   0  0  0  0  0  0  0  0  0  0  0  0
   -2.0242    2.4802    0.5733 H   0  0  0  0  0  0  0  0  0  0  0  0
    1.5125   -0.2965   -0.7088 H   0  0  0  0  0  0  0  0  0  0  0  0
    2.3583    1.9094   -2.6446 H   0  0  0  0  0  0  0  0  0  0  0  0
    2.5763    2.1534   -0.9011 H   0  0  0  0  0  0  0  0  0  0  0  0
    4.1680    0.5151   -0.6367 H   0  0  0  0  0  0  0  0  0  0  0  0
    4.5430    1.0891   -2.2889 H   0  0  0  0  0  0  0  0  0  0  0  0
    2.5361   -3.3397   -3.7976 H   0  0  0  0  0  0  0  0  0  0  0  0
    2.0870    0.2414   -4.2608 H   0  0  0  0  0  0  0  0  0  0  0  0
    1.1654   -1.2765   -4.4369 H   0  0  0  0  0  0  0  0  0  0  0  0
   -0.0332    0.6073   -3.2092 H   0  0  0  0  0  0  0  0  0  0  0  0
   -0.0252   -0.9829   -2.3925 H   0  0  0  0  0  0  0  0  0  0  0  0
  1  2  1  0
  2  3  1  0
  3  4  1  0
  4  5  1  0
  5  6  2  0
  6  7  1  0
  7  8  2  0
  8  9  1  0
  9 10  2  0
 10 11  1  0
 11 12  1  0
 12 13  1  0
 13 14  2  0
 13 15  1  0
 15 16  1  0
 16 17  1  0
 17 18  1  0
 18 19  2  0
 19 20  1  0
 20 21  2  0
 21 22  1  0
 22 23  1  0
 23 24  1  0
 12  3  1  0
  5 10  1  0
 24 15  1  0
 22 18  1  0
  1 25  1  0
  1 26  1  0
  1 27  1  0
  2 28  1  0
  2 29  1  0
  3 30  1  0
  4 31  1  0
  4 32  1  0
  6 33  1  0
  7 34  1  0
  8 35  1  0
  9 36  1  0
 11 37  1  0
 11 38  1  0
 15 39  1  0
 16 40  1  0
 16 41  1  0
 17 42  1  0
 17 43  1  0
 21 44  1  0
 23 45  1  0
 23 46  1  0
 24 47  1  0
 24 48  1  0
M  END
$$$$
