
     RDKit          3D

 42 45  0  0  0  0  0  0  0  0999 V2000
    1.5047    1.3015    0.9890 O   0  0  0  0  0  0  0  0  0  0  0  0
    0.5570    0.4962    0.7804 C   0  0  0  0  0  0  0  0  0  0  0  0
    0.7709   -0.9164    0.9367 N   0  0  0  0  0  0  0  0  0  0  0  0
    2.0876   -1.4671    1.2758 C   0  0  0  0  0  0  0  0  0  0  0  0
    3.0343   -1.3157    0.1066 C   0  0  0  0  0  0  0  0  0  0  0  0
    4.3292   -0.8099    0.2994 C   0  0  0  0  0  0  0  0  0  0  0  0
    5.2034   -0.6928   -0.7825 C   0  0  0  0  0  0  0  0  0  0  0  0
    4.7793   -1.0907   -2.0512 C   0  0  0  0  0  0  0  0  0  0  0  0
    3.5274   -1.5906   -2.2248 N   0  0  0  0  0  0  0  0  0  0  0  0
    2.6566   -1.7142   -1.1878 C   0  0  0  0  0  0  0  0  0  0  0  0
    1.9601   -2.9602    1.6326 C   0  0  0  0  0  0  0  0  0  0  0  0
    1.5825   -3.2540    3.0768 C   0  0  0  0  0  0  0  0  0  0  0  0
    3.0062   -3.4965    2.5987 C   0  0  0  0  0  0  0  0  0  0  0  0
   -0.7553    1.0324    0.3772 C   0  0  0  0  0  0  0  0  0  0  0  0
   -1.8958    0.3083    0.0726 C   0  0  0  0  0  0  0  0  0  0  0  0
   -2.8395    1.2709   -0.2421 C   0  0  0  0  0  0  0  0  0  0  0  0
   -2.2677    2.4868   -0.1263 N   0  0  0  0  0  0  0  0  0  0  0  0
   -1.0060    2.3498    0.2459 N   0  0  0  0  0  0  0  0  0  0  0  0
   -4.2473    1.0283   -0.6465 C   0  0  0  0  0  0  0  0  0  0  0  0
   -4.6466   -0.2321   -1.1322 C   0  0  0  0  0  0  0  0  0  0  0  0
   -5.9731   -0.4581   -1.5125 C   0  0  0  0  0  0  0  0  0  0  0  0
   -6.9157    0.5666   -1.4116 C   0  0  0  0  0  0  0  0  0  0  0  0
   -6.5340    1.8200   -0.9295 C   0  0  0  0  0  0  0  0  0  0  0  0
   -5.2087    2.0525   -0.5485 C   0  0  0  0  0  0  0  0  0  0  0  0
   -0.0320   -1.5722    0.8114 H   0  0  0  0  0  0  0  0  0  0  0  0
    2.4806   -0.9011    2.1516 H   0  0  0  0  0  0  0  0  0  0  0  0
    4.6619   -0.5069    1.2844 H   0  0  0  0  0  0  0  0  0  0  0  0
    6.2013   -0.2994   -0.6386 H   0  0  0  0  0  0  0  0  0  0  0  0
    5.4470   -1.0058   -2.8980 H   0  0  0  0  0  0  0  0  0  0  0  0
    1.6713   -2.1231   -1.3709 H   0  0  0  0  0  0  0  0  0  0  0  0
    1.5772   -3.6886    0.8853 H   0  0  0  0  0  0  0  0  0  0  0  0
    1.4738   -2.3736    3.7458 H   0  0  0  0  0  0  0  0  0  0  0  0
    0.9911   -4.1833    3.2175 H   0  0  0  0  0  0  0  0  0  0  0  0
    3.7446   -2.7595    2.9808 H   0  0  0  0  0  0  0  0  0  0  0  0
    3.2568   -4.5686    2.4543 H   0  0  0  0  0  0  0  0  0  0  0  0
   -2.0277   -0.7642    0.0879 H   0  0  0  0  0  0  0  0  0  0  0  0
   -2.7126    3.4112   -0.3160 H   0  0  0  0  0  0  0  0  0  0  0  0
   -3.9351   -1.0405   -1.2342 H   0  0  0  0  0  0  0  0  0  0  0  0
   -6.2695   -1.4289   -1.8885 H   0  0  0  0  0  0  0  0  0  0  0  0
   -7.9421    0.3892   -1.7059 H   0  0  0  0  0  0  0  0  0  0  0  0
   -7.2668    2.6123   -0.8470 H   0  0  0  0  0  0  0  0  0  0  0  0
   -4.9479    3.0280   -0.1616 H   0  0  0  0  0  0  0  0  0  0  0  0
  1  2  2  0
  2  3  1  0
  3  4  1  0
  4  5  1  0
  5  6  2  0
  6  7  1  0
  7  8  2  0
  8  9  1  0
  9 10  2  0
  4 11  1  0
 11 12  1  0
 12 13  1  0
  2 14  1  0
 14 15  1  0
 15 16  2  0
 16 17  1  0
 17 18  1  0
 16 19  1  0
 19 20  2  0
 20 21  1  0
 21 22  2  0
 22 23  1  0
 23 24  2  0
  5 10  1  0
 13 11  1  0
 14 18  2  0
 19 24  1  0
  3 25  1  0
  4 26  1  0
  6 27  1  0
  7 28  1  0
  8 29  1  0
 10 30  1  0
 11 31  1  0
 12 32  1  0
 12 33  1  0
 13 34  1  0
 13 35  1  0
 15 36  1  0
 17 37  1  0
 20 38  1  0
 21 39  1  0
 22 40  1  0
 23 41  1  0
 24 42  1  0
M  END
$$$$
