
     RDKit          3D

 50 53  0  0  0  0  0  0  0  0999 V2000
   -0.9523    6.5570   -5.9885 C   0  0  0  0  0  0  0  0  0  0  0  0
   -1.2315    5.4834   -4.9795 C   0  0  0  0  0  0  0  0  0  0  0  0
   -2.4782    4.8373   -4.9533 C   0  0  0  0  0  0  0  0  0  0  0  0
   -2.7494    3.8737   -3.9783 C   0  0  0  0  0  0  0  0  0  0  0  0
   -1.7810    3.5488   -3.0242 C   0  0  0  0  0  0  0  0  0  0  0  0
   -0.5314    4.1954   -3.0347 C   0  0  0  0  0  0  0  0  0  0  0  0
   -0.2709    5.1704   -4.0046 C   0  0  0  0  0  0  0  0  0  0  0  0
    0.4438    3.9408   -2.0596 O   0  0  0  0  0  0  0  0  0  0  0  0
    0.6499    2.7137   -1.4134 C   0  0  0  0  0  0  0  0  0  0  0  0
    0.4232    1.4828   -2.0488 C   0  0  0  0  0  0  0  0  0  0  0  0
    0.6879    0.2884   -1.3756 C   0  0  0  0  0  0  0  0  0  0  0  0
    1.1717    0.3305   -0.0569 C   0  0  0  0  0  0  0  0  0  0  0  0
    1.3805    1.5391    0.5365 N   0  0  0  0  0  0  0  0  0  0  0  0
    1.1502    2.7121   -0.1098 C   0  0  0  0  0  0  0  0  0  0  0  0
    1.4494   -0.9121    0.6967 C   0  0  0  0  0  0  0  0  0  0  0  0
    1.3035   -2.0302    0.1313 O   0  0  0  0  0  0  0  0  0  0  0  0
    1.9338   -0.8476    2.0494 N   0  0  0  0  0  0  0  0  0  0  0  0
    1.9715   -1.9672    2.9516 C   0  0  0  0  0  0  0  0  0  0  0  0
    2.9559   -2.0095    3.9495 C   0  0  0  0  0  0  0  0  0  0  0  0
    3.0012   -3.0718    4.8547 C   0  0  0  0  0  0  0  0  0  0  0  0
    2.0571   -4.0974    4.7822 C   0  0  0  0  0  0  0  0  0  0  0  0
    1.0490   -4.0652    3.8058 C   0  0  0  0  0  0  0  0  0  0  0  0
    1.0091   -2.9923    2.8953 C   0  0  0  0  0  0  0  0  0  0  0  0
    0.0275   -5.1803    3.7307 C   0  0  0  0  0  0  0  0  0  0  0  0
   -1.4295   -4.6656    3.8880 C   0  0  0  0  0  0  0  0  0  0  0  0
   -2.1602   -4.9504    2.5641 C   0  0  0  0  0  0  0  0  0  0  0  0
   -1.1533   -5.6832    1.7695 C   0  0  0  0  0  0  0  0  0  0  0  0
   -1.3613   -6.1317    0.6095 O   0  0  0  0  0  0  0  0  0  0  0  0
    0.0857   -5.8200    2.4287 N   0  0  0  0  0  0  0  0  0  0  0  0
   -1.1871    7.5495   -5.5477 H   0  0  0  0  0  0  0  0  0  0  0  0
   -1.5652    6.4154   -6.9027 H   0  0  0  0  0  0  0  0  0  0  0  0
    0.1172    6.5366   -6.2886 H   0  0  0  0  0  0  0  0  0  0  0  0
   -3.2418    5.0864   -5.6803 H   0  0  0  0  0  0  0  0  0  0  0  0
   -3.7139    3.3851   -3.9575 H   0  0  0  0  0  0  0  0  0  0  0  0
   -2.0190    2.8190   -2.2628 H   0  0  0  0  0  0  0  0  0  0  0  0
    0.6793    5.6900   -3.9901 H   0  0  0  0  0  0  0  0  0  0  0  0
    0.0641    1.4448   -3.0677 H   0  0  0  0  0  0  0  0  0  0  0  0
    0.5110   -0.6550   -1.8775 H   0  0  0  0  0  0  0  0  0  0  0  0
    1.3447    3.6476    0.3983 H   0  0  0  0  0  0  0  0  0  0  0  0
    2.3436    0.0534    2.3844 H   0  0  0  0  0  0  0  0  0  0  0  0
    3.6961   -1.2213    4.0184 H   0  0  0  0  0  0  0  0  0  0  0  0
    3.7703   -3.0994    5.6154 H   0  0  0  0  0  0  0  0  0  0  0  0
    2.1123   -4.9149    5.4908 H   0  0  0  0  0  0  0  0  0  0  0  0
    0.2109   -2.9484    2.1664 H   0  0  0  0  0  0  0  0  0  0  0  0
    0.2300   -5.9486    4.5099 H   0  0  0  0  0  0  0  0  0  0  0  0
   -1.9318   -5.2153    4.7139 H   0  0  0  0  0  0  0  0  0  0  0  0
   -1.4730   -3.5799    4.1294 H   0  0  0  0  0  0  0  0  0  0  0  0
   -2.4361   -4.0062    2.0476 H   0  0  0  0  0  0  0  0  0  0  0  0
   -3.0598   -5.5828    2.7277 H   0  0  0  0  0  0  0  0  0  0  0  0
    0.9228   -6.3062    2.0346 H   0  0  0  0  0  0  0  0  0  0  0  0
  1  2  1  0
  2  3  2  0
  3  4  1  0
  4  5  2  0
  5  6  1  0
  6  7  2  0
  6  8  1  0
  8  9  1  0
  9 10  2  0
 10 11  1  0
 11 12  2  0
 12 13  1  0
 13 14  2  0
 12 15  1  0
 15 16  2  0
 15 17  1  0
 17 18  1  0
 18 19  2  0
 19 20  1  0
 20 21  2  0
 21 22  1  0
 22 23  2  0
 22 24  1  0
 24 25  1  0
 25 26  1  0
 26 27  1  0
 27 28  2  0
 27 29  1  0
  2  7  1  0
  9 14  1  0
 18 23  1  0
 29 24  1  0
  1 30  1  0
  1 31  1  0
  1 32  1  0
  3 33  1  0
  4 34  1  0
  5 35  1  0
  7 36  1  0
 10 37  1  0
 11 38  1  0
 14 39  1  0
 17 40  1  0
 19 41  1  0
 20 42  1  0
 21 43  1  0
 23 44  1  0
 24 45  1  0
 25 46  1  0
 25 47  1  0
 26 48  1  0
 26 49  1  0
 29 50  1  0
M  END
$$$$
