
     RDKit          3D

 42 45  0  0  0  0  0  0  0  0999 V2000
   -0.5881    1.4957    1.6812 O   0  0  0  0  0  0  0  0  0  0  0  0
   -1.2276    0.4101    1.6858 C   0  0  0  0  0  0  0  0  0  0  0  0
   -1.6647   -0.1833    0.4504 N   0  0  0  0  0  0  0  0  0  0  0  0
   -1.3567    0.3488   -0.8484 C   0  0  0  0  0  0  0  0  0  0  0  0
   -1.0518   -0.5247   -1.8989 C   0  0  0  0  0  0  0  0  0  0  0  0
   -0.7700   -0.0238   -3.1707 C   0  0  0  0  0  0  0  0  0  0  0  0
   -0.8125    1.3608   -3.3934 C   0  0  0  0  0  0  0  0  0  0  0  0
   -1.1387    2.1911   -2.3639 N   0  0  0  0  0  0  0  0  0  0  0  0
   -1.4122    1.7259   -1.1161 C   0  0  0  0  0  0  0  0  0  0  0  0
   -0.5271    1.9069   -4.6916 N   0  0  0  0  0  0  0  0  0  0  0  0
   -0.5411    3.2131   -5.0224 C   0  0  0  0  0  0  0  0  0  0  0  0
   -0.2141    3.3281   -6.3559 C   0  0  0  0  0  0  0  0  0  0  0  0
   -0.0103    2.0301   -6.7813 C   0  0  0  0  0  0  0  0  0  0  0  0
   -0.2059    1.1825   -5.7529 N   0  0  0  0  0  0  0  0  0  0  0  0
   -1.6010   -0.2111    3.0072 C   0  0  0  0  0  0  0  0  0  0  0  0
   -1.3822   -1.7175    3.0860 C   0  0  0  0  0  0  0  0  0  0  0  0
   -0.4952   -0.7863    3.9107 C   0  0  0  0  0  0  0  0  0  0  0  0
    0.9873   -0.5633    3.4911 C   0  0  0  0  0  0  0  0  0  0  0  0
    1.5673   -1.5495    2.4805 C   0  0  0  0  0  0  0  0  0  0  0  0
    3.0744   -1.4677    2.6712 C   0  0  0  0  0  0  0  0  0  0  0  0
    3.2991   -1.0033    4.1093 C   0  0  0  0  0  0  0  0  0  0  0  0
    1.9223   -0.6906    4.6888 C   0  0  0  0  0  0  0  0  0  0  0  0
   -2.1435   -1.1110    0.4875 H   0  0  0  0  0  0  0  0  0  0  0  0
   -1.0206   -1.5934   -1.7273 H   0  0  0  0  0  0  0  0  0  0  0  0
   -0.5237   -0.7100   -3.9707 H   0  0  0  0  0  0  0  0  0  0  0  0
   -1.6995    2.4297   -0.3477 H   0  0  0  0  0  0  0  0  0  0  0  0
   -0.7714    4.0272   -4.3471 H   0  0  0  0  0  0  0  0  0  0  0  0
   -0.1344    4.2348   -6.9403 H   0  0  0  0  0  0  0  0  0  0  0  0
    0.2643    1.7223   -7.7811 H   0  0  0  0  0  0  0  0  0  0  0  0
   -2.5216    0.1402    3.5195 H   0  0  0  0  0  0  0  0  0  0  0  0
   -2.1558   -2.2474    3.6805 H   0  0  0  0  0  0  0  0  0  0  0  0
   -0.9462   -2.1821    2.1796 H   0  0  0  0  0  0  0  0  0  0  0  0
   -0.7553   -0.7210    4.9896 H   0  0  0  0  0  0  0  0  0  0  0  0
    1.1160    0.4679    3.1001 H   0  0  0  0  0  0  0  0  0  0  0  0
    1.2421   -2.5869    2.7175 H   0  0  0  0  0  0  0  0  0  0  0  0
    1.2766   -1.2879    1.4397 H   0  0  0  0  0  0  0  0  0  0  0  0
    3.5516   -2.4549    2.4869 H   0  0  0  0  0  0  0  0  0  0  0  0
    3.5008   -0.7229    1.9633 H   0  0  0  0  0  0  0  0  0  0  0  0
    3.8005   -1.7963    4.7063 H   0  0  0  0  0  0  0  0  0  0  0  0
    3.9350   -0.0908    4.1196 H   0  0  0  0  0  0  0  0  0  0  0  0
    1.9391    0.2456    5.2888 H   0  0  0  0  0  0  0  0  0  0  0  0
    1.6024   -1.5343    5.3412 H   0  0  0  0  0  0  0  0  0  0  0  0
  1  2  2  0
  2  3  1  0
  3  4  1  0
  4  5  2  0
  5  6  1  0
  6  7  2  0
  7  8  1  0
  8  9  2  0
  7 10  1  0
 10 11  1  0
 11 12  2  0
 12 13  1  0
 13 14  2  0
  2 15  1  0
 15 16  1  0
 16 17  1  0
 17 18  1  0
 18 19  1  0
 19 20  1  0
 20 21  1  0
 21 22  1  0
  4  9  1  0
 14 10  1  0
 17 15  1  0
 22 18  1  0
  3 23  1  0
  5 24  1  0
  6 25  1  0
  9 26  1  0
 11 27  1  0
 12 28  1  0
 13 29  1  0
 15 30  1  0
 16 31  1  0
 16 32  1  0
 17 33  1  0
 18 34  1  0
 19 35  1  0
 19 36  1  0
 20 37  1  0
 20 38  1  0
 21 39  1  0
 21 40  1  0
 22 41  1  0
 22 42  1  0
M  END
$$$$
