
     RDKit          3D

 49 52  0  0  0  0  0  0  0  0999 V2000
   -2.4821    3.6572   -0.6185 C   0  0  0  0  0  0  0  0  0  0  0  0
   -1.4810    2.6923   -0.0776 C   0  0  0  0  0  0  0  0  0  0  0  0
   -1.5024    1.3975   -0.4772 N   0  0  0  0  0  0  0  0  0  0  0  0
   -0.5895    0.4989   -0.0240 C   0  0  0  0  0  0  0  0  0  0  0  0
    0.4014    0.9113    0.8937 C   0  0  0  0  0  0  0  0  0  0  0  0
    1.3390   -0.0936    1.5115 C   0  0  0  0  0  0  0  0  0  0  0  0
    0.4558    2.2856    1.2323 C   0  0  0  0  0  0  0  0  0  0  0  0
   -0.4961    3.1270    0.7464 N   0  0  0  0  0  0  0  0  0  0  0  0
    1.4951    2.8314    2.0644 N   0  0  0  0  0  0  0  0  0  0  0  0
    1.3799    3.9257    2.8416 C   0  0  0  0  0  0  0  0  0  0  0  0
    2.6052    4.1846    3.4159 C   0  0  0  0  0  0  0  0  0  0  0  0
    3.4387    3.2002    2.9232 C   0  0  0  0  0  0  0  0  0  0  0  0
    2.7453    2.3954    2.0954 N   0  0  0  0  0  0  0  0  0  0  0  0
   -0.6424   -0.8510   -0.5166 N   0  0  0  0  0  0  0  0  0  0  0  0
   -1.8831   -1.6186   -0.3629 C   0  0  0  0  0  0  0  0  0  0  0  0
   -1.7382   -2.6896    0.7245 C   0  0  0  0  0  0  0  0  0  0  0  0
   -0.5736   -3.6869    0.5240 C   0  0  0  0  0  0  0  0  0  0  0  0
    0.0089   -3.6443   -0.8270 N   0  0  0  0  0  0  0  0  0  0  0  0
    1.0068   -2.6038   -1.1268 C   0  0  0  0  0  0  0  0  0  0  0  0
    0.3395   -1.2833   -1.5195 C   0  0  0  0  0  0  0  0  0  0  0  0
   -0.4115   -4.5922   -1.8352 C   0  0  0  0  0  0  0  0  0  0  0  0
   -1.7694   -4.9232   -1.9878 C   0  0  0  0  0  0  0  0  0  0  0  0
   -2.1539   -5.8478   -2.9614 C   0  0  0  0  0  0  0  0  0  0  0  0
   -1.2182   -6.4388   -3.7491 N   0  0  0  0  0  0  0  0  0  0  0  0
    0.1039   -6.1566   -3.6153 C   0  0  0  0  0  0  0  0  0  0  0  0
    0.5320   -5.2367   -2.6551 C   0  0  0  0  0  0  0  0  0  0  0  0
   -3.4424    3.1380   -0.8224 H   0  0  0  0  0  0  0  0  0  0  0  0
   -2.0980    4.0978   -1.5619 H   0  0  0  0  0  0  0  0  0  0  0  0
   -2.6661    4.4697    0.1158 H   0  0  0  0  0  0  0  0  0  0  0  0
    2.2780   -0.1450    0.9222 H   0  0  0  0  0  0  0  0  0  0  0  0
    1.5669    0.1743    2.5638 H   0  0  0  0  0  0  0  0  0  0  0  0
    0.8742   -1.0982    1.5526 H   0  0  0  0  0  0  0  0  0  0  0  0
    0.4727    4.5000    2.9800 H   0  0  0  0  0  0  0  0  0  0  0  0
    2.8605    4.9884    4.0932 H   0  0  0  0  0  0  0  0  0  0  0  0
    4.4906    3.0842    3.1466 H   0  0  0  0  0  0  0  0  0  0  0  0
   -2.1651   -2.0902   -1.3283 H   0  0  0  0  0  0  0  0  0  0  0  0
   -2.7270   -0.9480   -0.0888 H   0  0  0  0  0  0  0  0  0  0  0  0
   -1.6165   -2.1846    1.7077 H   0  0  0  0  0  0  0  0  0  0  0  0
   -2.6927   -3.2568    0.7758 H   0  0  0  0  0  0  0  0  0  0  0  0
    0.2192   -3.4741    1.2734 H   0  0  0  0  0  0  0  0  0  0  0  0
   -0.9252   -4.7170    0.7530 H   0  0  0  0  0  0  0  0  0  0  0  0
    1.6654   -2.4439   -0.2478 H   0  0  0  0  0  0  0  0  0  0  0  0
    1.6749   -2.9108   -1.9559 H   0  0  0  0  0  0  0  0  0  0  0  0
    1.1347   -0.5147   -1.6411 H   0  0  0  0  0  0  0  0  0  0  0  0
   -0.1612   -1.3964   -2.5057 H   0  0  0  0  0  0  0  0  0  0  0  0
   -2.5289   -4.4693   -1.3681 H   0  0  0  0  0  0  0  0  0  0  0  0
   -3.1987   -6.0979   -3.0886 H   0  0  0  0  0  0  0  0  0  0  0  0
    0.8259   -6.6543   -4.2488 H   0  0  0  0  0  0  0  0  0  0  0  0
    1.5921   -5.0587   -2.5385 H   0  0  0  0  0  0  0  0  0  0  0  0
  1  2  1  0
  2  3  2  0
  3  4  1  0
  4  5  2  0
  5  6  1  0
  5  7  1  0
  7  8  2  0
  7  9  1  0
  9 10  1  0
 10 11  2  0
 11 12  1  0
 12 13  2  0
  4 14  1  0
 14 15  1  0
 15 16  1  0
 16 17  1  0
 17 18  1  0
 18 19  1  0
 19 20  1  0
 18 21  1  0
 21 22  2  0
 22 23  1  0
 23 24  2  0
 24 25  1  0
 25 26  2  0
  8  2  1  0
 13  9  1  0
 20 14  1  0
 21 26  1  0
  1 27  1  0
  1 28  1  0
  1 29  1  0
  6 30  1  0
  6 31  1  0
  6 32  1  0
 10 33  1  0
 11 34  1  0
 12 35  1  0
 15 36  1  0
 15 37  1  0
 16 38  1  0
 16 39  1  0
 17 40  1  0
 17 41  1  0
 19 42  1  0
 19 43  1  0
 20 44  1  0
 20 45  1  0
 22 46  1  0
 23 47  1  0
 25 48  1  0
 26 49  1  0
M  END
$$$$
