
     RDKit          3D

 43 45  0  0  0  0  0  0  0  0999 V2000
    1.1682   -5.9318   -1.8940 C   0  0  0  0  0  0  0  0  0  0  0  0
    1.2724   -4.5000   -2.1540 N   0  0  0  0  0  0  0  0  0  0  0  0
    1.2095   -3.9777   -3.3690 N   0  0  0  0  0  0  0  0  0  0  0  0
    1.3376   -2.6418   -3.2528 C   0  0  0  0  0  0  0  0  0  0  0  0
    1.4862   -2.3074   -1.9182 C   0  0  0  0  0  0  0  0  0  0  0  0
    1.7057   -0.9550   -1.3653 C   0  0  0  0  0  0  0  0  0  0  0  0
    2.3688   -0.8285   -0.3006 O   0  0  0  0  0  0  0  0  0  0  0  0
    1.1746    0.2166   -2.0167 N   0  0  0  0  0  0  0  0  0  0  0  0
    1.7924    1.5306   -1.7964 C   0  0  0  0  0  0  0  0  0  0  0  0
    0.8759    2.4251   -0.9389 C   0  0  0  0  0  0  0  0  0  0  0  0
   -0.6218    2.0592   -1.0602 C   0  0  0  0  0  0  0  0  0  0  0  0
   -0.9235    1.4757   -2.4551 C   0  0  0  0  0  0  0  0  0  0  0  0
   -0.1417    0.1684   -2.6765 C   0  0  0  0  0  0  0  0  0  0  0  0
   -0.9449    1.1053   -0.0424 O   0  0  0  0  0  0  0  0  0  0  0  0
   -2.2374    0.7067    0.3333 C   0  0  0  0  0  0  0  0  0  0  0  0
   -2.3625   -0.3864    1.1999 C   0  0  0  0  0  0  0  0  0  0  0  0
   -3.6242   -0.8307    1.6058 C   0  0  0  0  0  0  0  0  0  0  0  0
   -4.7753   -0.1808    1.1507 C   0  0  0  0  0  0  0  0  0  0  0  0
   -6.3585   -0.7384    1.6598 Cl  0  0  0  0  0  0  0  0  0  0  0  0
   -4.6620    0.9159    0.2907 C   0  0  0  0  0  0  0  0  0  0  0  0
   -3.4008    1.3621   -0.1170 C   0  0  0  0  0  0  0  0  0  0  0  0
    1.4356   -3.5172   -1.2410 C   0  0  0  0  0  0  0  0  0  0  0  0
    1.5569   -3.7242    0.2436 C   0  0  0  0  0  0  0  0  0  0  0  0
    0.7241   -2.8461    0.9129 F   0  0  0  0  0  0  0  0  0  0  0  0
    2.8648   -3.5122    0.6370 F   0  0  0  0  0  0  0  0  0  0  0  0
    0.2506   -6.1401   -1.3048 H   0  0  0  0  0  0  0  0  0  0  0  0
    2.0603   -6.2787   -1.3312 H   0  0  0  0  0  0  0  0  0  0  0  0
    1.1125   -6.4928   -2.8510 H   0  0  0  0  0  0  0  0  0  0  0  0
    1.3532   -1.9619   -4.0933 H   0  0  0  0  0  0  0  0  0  0  0  0
    1.9514    2.0146   -2.7849 H   0  0  0  0  0  0  0  0  0  0  0  0
    2.7930    1.4387   -1.3208 H   0  0  0  0  0  0  0  0  0  0  0  0
    1.1867    2.3569    0.1268 H   0  0  0  0  0  0  0  0  0  0  0  0
    1.0229    3.4823   -1.2513 H   0  0  0  0  0  0  0  0  0  0  0  0
   -1.2114    2.9879   -0.9014 H   0  0  0  0  0  0  0  0  0  0  0  0
   -2.0100    1.2828   -2.5756 H   0  0  0  0  0  0  0  0  0  0  0  0
   -0.6331    2.2182   -3.2306 H   0  0  0  0  0  0  0  0  0  0  0  0
   -0.0108   -0.0073   -3.7647 H   0  0  0  0  0  0  0  0  0  0  0  0
   -0.7449   -0.6672   -2.2569 H   0  0  0  0  0  0  0  0  0  0  0  0
   -1.4765   -0.8970    1.5556 H   0  0  0  0  0  0  0  0  0  0  0  0
   -3.7055   -1.6794    2.2729 H   0  0  0  0  0  0  0  0  0  0  0  0
   -5.5504    1.4247   -0.0611 H   0  0  0  0  0  0  0  0  0  0  0  0
   -3.3463    2.2170   -0.7752 H   0  0  0  0  0  0  0  0  0  0  0  0
    1.2654   -4.7561    0.5251 H   0  0  0  0  0  0  0  0  0  0  0  0
  1  2  1  0
  2  3  1  0
  3  4  2  0
  4  5  1  0
  5  6  1  0
  6  7  2  0
  6  8  1  0
  8  9  1  0
  9 10  1  0
 10 11  1  0
 11 12  1  0
 12 13  1  0
 11 14  1  0
 14 15  1  0
 15 16  2  0
 16 17  1  0
 17 18  2  0
 18 19  1  0
 18 20  1  0
 20 21  2  0
  5 22  2  0
 22 23  1  0
 23 24  1  0
 23 25  1  0
 22  2  1  0
 13  8  1  0
 15 21  1  0
  1 26  1  0
  1 27  1  0
  1 28  1  0
  4 29  1  0
  9 30  1  0
  9 31  1  0
 10 32  1  0
 10 33  1  0
 11 34  1  0
 12 35  1  0
 12 36  1  0
 13 37  1  0
 13 38  1  0
 16 39  1  0
 17 40  1  0
 20 41  1  0
 21 42  1  0
 23 43  1  0
M  END
$$$$
