
     RDKit          3D

 54 56  0  0  0  0  0  0  0  0999 V2000
   -3.4498   -0.2459    6.6439 C   0  0  0  0  0  0  0  0  0  0  0  0
   -2.0816   -0.2218    6.2503 O   0  0  0  0  0  0  0  0  0  0  0  0
   -1.6271   -0.4808    4.9494 C   0  0  0  0  0  0  0  0  0  0  0  0
   -0.2510   -0.4230    4.7035 C   0  0  0  0  0  0  0  0  0  0  0  0
    0.2541   -0.6838    3.4276 C   0  0  0  0  0  0  0  0  0  0  0  0
   -0.6122   -0.9984    2.3681 C   0  0  0  0  0  0  0  0  0  0  0  0
   -1.9950   -1.0641    2.6165 C   0  0  0  0  0  0  0  0  0  0  0  0
   -2.5001   -0.8011    3.8929 C   0  0  0  0  0  0  0  0  0  0  0  0
   -0.0415   -1.3246    1.0031 C   0  0  2  0  0  0  0  0  0  0  0  0
   -0.8569   -0.7307   -0.0624 N   0  0  0  0  0  0  0  0  0  0  0  0
   -0.6623    0.6171   -0.5184 C   0  0  0  0  0  0  0  0  0  0  0  0
    0.1105    1.3883    0.1128 O   0  0  0  0  0  0  0  0  0  0  0  0
   -1.4008    1.1329   -1.6928 C   0  0  0  0  0  0  0  0  0  0  0  0
   -1.9800    2.4117   -1.6160 C   0  0  0  0  0  0  0  0  0  0  0  0
   -2.7080    2.9285   -2.6901 C   0  0  0  0  0  0  0  0  0  0  0  0
   -2.8621    2.1788   -3.8561 C   0  0  0  0  0  0  0  0  0  0  0  0
   -2.2776    0.9153   -3.9563 C   0  0  0  0  0  0  0  0  0  0  0  0
   -1.5364    0.3880   -2.8901 C   0  0  0  0  0  0  0  0  0  0  0  0
   -0.7369   -1.2090   -3.1228 S   0  0  0  0  0  0  0  0  0  0  0  0
    0.7523   -0.5125   -3.9110 C   0  0  0  0  0  0  0  0  0  0  0  0
    1.8275   -1.5564   -3.9160 C   0  0  0  0  0  0  0  0  0  0  0  0
    1.8831   -2.3667   -4.8809 O   0  0  0  0  0  0  0  0  0  0  0  0
    2.7281   -1.7078   -2.8046 N   0  0  0  0  0  0  0  0  0  0  0  0
    3.5217   -2.9038   -2.5914 C   0  0  0  0  0  0  0  0  0  0  0  0
    4.0899   -2.7737   -1.1852 C   0  0  0  0  0  0  0  0  0  0  0  0
    3.9429   -1.3021   -0.8055 C   0  0  0  0  0  0  0  0  0  0  0  0
    2.8876   -0.7300   -1.7433 C   0  0  0  0  0  0  0  0  0  0  0  0
    0.0795   -2.8422    0.8081 C   0  0  0  0  0  0  0  0  0  0  0  0
    0.6482   -3.1129   -0.4237 F   0  0  0  0  0  0  0  0  0  0  0  0
   -1.1618   -3.4514    0.8757 F   0  0  0  0  0  0  0  0  0  0  0  0
   -3.8858   -1.2502    6.4562 H   0  0  0  0  0  0  0  0  0  0  0  0
   -4.0179    0.5291    6.0899 H   0  0  0  0  0  0  0  0  0  0  0  0
   -3.5182   -0.0278    7.7283 H   0  0  0  0  0  0  0  0  0  0  0  0
    0.4315   -0.1829    5.5083 H   0  0  0  0  0  0  0  0  0  0  0  0
    1.3245   -0.6471    3.2685 H   0  0  0  0  0  0  0  0  0  0  0  0
   -2.6848   -1.3252    1.8245 H   0  0  0  0  0  0  0  0  0  0  0  0
   -3.5685   -0.8596    4.0491 H   0  0  0  0  0  0  0  0  0  0  0  0
    0.9892   -0.9114    0.9333 H   0  0  0  0  0  0  0  0  0  0  0  0
   -1.6750   -1.2661   -0.4322 H   0  0  0  0  0  0  0  0  0  0  0  0
   -1.8837    3.0042   -0.7143 H   0  0  0  0  0  0  0  0  0  0  0  0
   -3.1570    3.9102   -2.6167 H   0  0  0  0  0  0  0  0  0  0  0  0
   -3.4277    2.5804   -4.6872 H   0  0  0  0  0  0  0  0  0  0  0  0
   -2.3875    0.3511   -4.8739 H   0  0  0  0  0  0  0  0  0  0  0  0
    0.5071   -0.2198   -4.9550 H   0  0  0  0  0  0  0  0  0  0  0  0
    1.0934    0.3975   -3.3746 H   0  0  0  0  0  0  0  0  0  0  0  0
    2.8844   -3.8121   -2.6692 H   0  0  0  0  0  0  0  0  0  0  0  0
    4.3369   -2.9481   -3.3444 H   0  0  0  0  0  0  0  0  0  0  0  0
    3.4910   -3.3968   -0.4850 H   0  0  0  0  0  0  0  0  0  0  0  0
    5.1513   -3.0978   -1.1449 H   0  0  0  0  0  0  0  0  0  0  0  0
    3.6382   -1.1895    0.2575 H   0  0  0  0  0  0  0  0  0  0  0  0
    4.9101   -0.7779   -0.9684 H   0  0  0  0  0  0  0  0  0  0  0  0
    1.9239   -0.5975   -1.2101 H   0  0  0  0  0  0  0  0  0  0  0  0
    3.2266    0.2427   -2.1616 H   0  0  0  0  0  0  0  0  0  0  0  0
    0.7324   -3.2705    1.5984 H   0  0  0  0  0  0  0  0  0  0  0  0
  1  2  1  0
  2  3  1  0
  3  4  2  0
  4  5  1  0
  5  6  2  0
  6  7  1  0
  7  8  2  0
  6  9  1  0
  9 10  1  0
 10 11  1  0
 11 12  2  0
 11 13  1  0
 13 14  2  0
 14 15  1  0
 15 16  2  0
 16 17  1  0
 17 18  2  0
 18 19  1  0
 19 20  1  0
 20 21  1  0
 21 22  2  0
 21 23  1  0
 23 24  1  0
 24 25  1  0
 25 26  1  0
 26 27  1  0
  9 28  1  0
 28 29  1  0
 28 30  1  0
  3  8  1  0
 13 18  1  0
 27 23  1  0
  1 31  1  0
  1 32  1  0
  1 33  1  0
  4 34  1  0
  5 35  1  0
  7 36  1  0
  8 37  1  0
  9 38  1  1
 10 39  1  0
 14 40  1  0
 15 41  1  0
 16 42  1  0
 17 43  1  0
 20 44  1  0
 20 45  1  0
 24 46  1  0
 24 47  1  0
 25 48  1  0
 25 49  1  0
 26 50  1  0
 26 51  1  0
 27 52  1  0
 27 53  1  0
 28 54  1  0
M  END
$$$$
