
     RDKit          3D

 39 42  0  0  0  0  0  0  0  0999 V2000
   -1.3833   -3.4750    0.1944 C   0  0  0  0  0  0  0  0  0  0  0  0
   -0.2410   -2.5888   -0.3044 C   0  0  1  0  0  0  0  0  0  0  0  0
    0.5757   -2.1450    0.8424 N   0  0  0  0  0  0  0  0  0  0  0  0
    1.5161   -1.0704    0.4917 C   0  0  0  0  0  0  0  0  0  0  0  0
    0.7918    0.2339    0.3267 C   0  0  0  0  0  0  0  0  0  0  0  0
    0.2879    0.8609    1.4303 N   0  0  0  0  0  0  0  0  0  0  0  0
   -0.3897    2.0218    1.2759 C   0  0  0  0  0  0  0  0  0  0  0  0
   -1.0950    2.9586    2.5019 S   0  0  0  0  0  0  0  0  0  0  0  0
   -1.6562    4.0985    1.3867 C   0  0  0  0  0  0  0  0  0  0  0  0
   -2.4308    5.3446    1.4952 C   0  0  0  0  0  0  0  0  0  0  0  0
   -2.5413    5.7993    0.0163 C   0  0  0  0  0  0  0  0  0  0  0  0
   -1.8090    4.7537   -0.8673 C   0  0  0  0  0  0  0  0  0  0  0  0
   -1.3180    3.7730    0.1207 C   0  0  0  0  0  0  0  0  0  0  0  0
   -0.5922    2.5878    0.0286 C   0  0  0  0  0  0  0  0  0  0  0  0
   -0.0833    1.9413   -1.0950 C   0  0  0  0  0  0  0  0  0  0  0  0
   -0.2484    2.4192   -2.2495 O   0  0  0  0  0  0  0  0  0  0  0  0
    0.6004    0.7713   -0.9227 N   0  0  0  0  0  0  0  0  0  0  0  0
    0.5825   -3.3245   -1.3336 C   0  0  0  0  0  0  0  0  0  0  0  0
    1.3096   -4.4940   -1.1353 C   0  0  0  0  0  0  0  0  0  0  0  0
    1.9803   -4.9241   -2.2861 C   0  0  0  0  0  0  0  0  0  0  0  0
    3.0613   -6.4945   -2.3334 Br  0  0  0  0  0  0  0  0  0  0  0  0
    1.7891   -4.1041   -3.3904 C   0  0  0  0  0  0  0  0  0  0  0  0
    0.7814   -2.8386   -2.9321 S   0  0  0  0  0  0  0  0  0  0  0  0
   -2.0184   -3.7989   -0.6580 H   0  0  0  0  0  0  0  0  0  0  0  0
   -0.9876   -4.3744    0.7129 H   0  0  0  0  0  0  0  0  0  0  0  0
   -2.0169   -2.9052    0.9071 H   0  0  0  0  0  0  0  0  0  0  0  0
   -0.7143   -1.7075   -0.7906 H   0  0  0  0  0  0  0  0  0  0  0  0
    1.1255   -2.9554    1.2137 H   0  0  0  0  0  0  0  0  0  0  0  0
    2.2518   -0.9513    1.3167 H   0  0  0  0  0  0  0  0  0  0  0  0
    2.1001   -1.3240   -0.4199 H   0  0  0  0  0  0  0  0  0  0  0  0
   -1.8787    6.0894    2.1069 H   0  0  0  0  0  0  0  0  0  0  0  0
   -3.4320    5.1387    1.9301 H   0  0  0  0  0  0  0  0  0  0  0  0
   -2.0730    6.7997   -0.1104 H   0  0  0  0  0  0  0  0  0  0  0  0
   -3.6100    5.8693   -0.2822 H   0  0  0  0  0  0  0  0  0  0  0  0
   -2.5110    4.2666   -1.5774 H   0  0  0  0  0  0  0  0  0  0  0  0
   -0.9561    5.2138   -1.4106 H   0  0  0  0  0  0  0  0  0  0  0  0
    0.9784    0.2772   -1.7630 H   0  0  0  0  0  0  0  0  0  0  0  0
    1.3555   -5.0200   -0.1908 H   0  0  0  0  0  0  0  0  0  0  0  0
    2.2151   -4.2537   -4.3732 H   0  0  0  0  0  0  0  0  0  0  0  0
  1  2  1  0
  2  3  1  0
  3  4  1  0
  4  5  1  0
  5  6  2  0
  6  7  1  0
  7  8  1  0
  8  9  1  0
  9 10  1  0
 10 11  1  0
 11 12  1  0
 12 13  1  0
 13 14  1  0
 14 15  1  0
 15 16  2  0
 15 17  1  0
  2 18  1  0
 18 19  2  0
 19 20  1  0
 20 21  1  0
 20 22  2  0
 22 23  1  0
 17  5  1  0
  7 14  2  0
  9 13  2  0
 23 18  1  0
  1 24  1  0
  1 25  1  0
  1 26  1  0
  2 27  1  6
  3 28  1  0
  4 29  1  0
  4 30  1  0
 10 31  1  0
 10 32  1  0
 11 33  1  0
 11 34  1  0
 12 35  1  0
 12 36  1  0
 17 37  1  0
 19 38  1  0
 22 39  1  0
M  END
$$$$
