
     RDKit          3D

 47 50  0  0  0  0  0  0  0  0999 V2000
   -4.7823    3.3162   -1.3976 C   0  0  0  0  0  0  0  0  0  0  0  0
   -4.4510    2.2730   -0.3712 C   0  0  0  0  0  0  0  0  0  0  0  0
   -5.3000    2.0706    0.7256 C   0  0  0  0  0  0  0  0  0  0  0  0
   -4.9744    1.1335    1.7081 C   0  0  0  0  0  0  0  0  0  0  0  0
   -5.8092    0.9521    2.7625 F   0  0  0  0  0  0  0  0  0  0  0  0
   -3.7906    0.3930    1.6096 C   0  0  0  0  0  0  0  0  0  0  0  0
   -3.4768   -0.5069    2.5793 N   0  0  0  0  0  0  0  0  0  0  0  0
   -2.3378   -1.2440    2.5380 C   0  0  0  0  0  0  0  0  0  0  0  0
   -2.0722   -2.1504    3.5609 O   0  0  0  0  0  0  0  0  0  0  0  0
   -1.4457   -1.0901    1.4729 C   0  0  0  0  0  0  0  0  0  0  0  0
   -1.7262   -0.1729    0.4510 C   0  0  0  0  0  0  0  0  0  0  0  0
   -0.7766   -0.0630   -0.6753 C   0  0  0  0  0  0  0  0  0  0  0  0
   -1.1618   -0.3817   -1.8328 O   0  0  0  0  0  0  0  0  0  0  0  0
    0.5748    0.3828   -0.4687 N   0  0  0  0  0  0  0  0  0  0  0  0
    1.0331    1.0371    0.7480 C   0  0  0  0  0  0  0  0  0  0  0  0
    2.5095    1.3574    0.5346 C   0  0  0  0  0  0  0  0  0  0  0  0
    2.8220    1.0054   -0.9272 C   0  0  0  0  0  0  0  0  0  0  0  0
    1.5859    0.3181   -1.5089 C   0  0  0  0  0  0  0  0  0  0  0  0
    4.0440    0.1976   -1.0702 N   0  0  0  0  0  0  0  0  0  0  0  0
    4.3002   -1.1149   -0.5183 C   0  0  0  0  0  0  0  0  0  0  0  0
    3.3496   -1.8202    0.2498 C   0  0  0  0  0  0  0  0  0  0  0  0
    3.6483   -3.0875    0.7595 C   0  0  0  0  0  0  0  0  0  0  0  0
    4.8931   -3.6684    0.5124 C   0  0  0  0  0  0  0  0  0  0  0  0
    5.8429   -2.9829   -0.2460 C   0  0  0  0  0  0  0  0  0  0  0  0
    5.5492   -1.7157   -0.7579 C   0  0  0  0  0  0  0  0  0  0  0  0
   -2.9180    0.5874    0.5110 C   0  0  0  0  0  0  0  0  0  0  0  0
   -3.2545    1.5459   -0.4668 C   0  0  0  0  0  0  0  0  0  0  0  0
   -5.8820    3.4471   -1.4851 H   0  0  0  0  0  0  0  0  0  0  0  0
   -4.3925    3.0211   -2.3951 H   0  0  0  0  0  0  0  0  0  0  0  0
   -4.3251    4.2834   -1.1015 H   0  0  0  0  0  0  0  0  0  0  0  0
   -6.2144    2.6432    0.8218 H   0  0  0  0  0  0  0  0  0  0  0  0
   -1.2317   -2.7166    3.5621 H   0  0  0  0  0  0  0  0  0  0  0  0
   -0.5444   -1.6909    1.4358 H   0  0  0  0  0  0  0  0  0  0  0  0
    0.9133    0.3625    1.6217 H   0  0  0  0  0  0  0  0  0  0  0  0
    0.4500    1.9691    0.9137 H   0  0  0  0  0  0  0  0  0  0  0  0
    2.7000    2.4368    0.7235 H   0  0  0  0  0  0  0  0  0  0  0  0
    3.1368    0.7758    1.2438 H   0  0  0  0  0  0  0  0  0  0  0  0
    2.9683    1.9620   -1.4797 H   0  0  0  0  0  0  0  0  0  0  0  0
    1.2323    0.8623   -2.4121 H   0  0  0  0  0  0  0  0  0  0  0  0
    1.7784   -0.7401   -1.7858 H   0  0  0  0  0  0  0  0  0  0  0  0
    4.8081    0.6344   -1.6350 H   0  0  0  0  0  0  0  0  0  0  0  0
    2.3771   -1.4111    0.4641 H   0  0  0  0  0  0  0  0  0  0  0  0
    2.9120   -3.6202    1.3476 H   0  0  0  0  0  0  0  0  0  0  0  0
    5.1213   -4.6495    0.9084 H   0  0  0  0  0  0  0  0  0  0  0  0
    6.8083   -3.4331   -0.4380 H   0  0  0  0  0  0  0  0  0  0  0  0
    6.2994   -1.1998   -1.3441 H   0  0  0  0  0  0  0  0  0  0  0  0
   -2.5924    1.7418   -1.3005 H   0  0  0  0  0  0  0  0  0  0  0  0
  1  2  1  0
  2  3  2  0
  3  4  1  0
  4  5  1  0
  4  6  2  0
  6  7  1  0
  7  8  2  0
  8  9  1  0
  8 10  1  0
 10 11  2  0
 11 12  1  0
 12 13  2  0
 12 14  1  0
 14 15  1  0
 15 16  1  0
 16 17  1  0
 17 18  1  0
 17 19  1  0
 19 20  1  0
 20 21  2  0
 21 22  1  0
 22 23  2  0
 23 24  1  0
 24 25  2  0
 11 26  1  0
 26 27  2  0
  2 27  1  0
  6 26  1  0
 18 14  1  0
 20 25  1  0
  1 28  1  0
  1 29  1  0
  1 30  1  0
  3 31  1  0
  9 32  1  0
 10 33  1  0
 15 34  1  0
 15 35  1  0
 16 36  1  0
 16 37  1  0
 17 38  1  0
 18 39  1  0
 18 40  1  0
 19 41  1  0
 21 42  1  0
 22 43  1  0
 23 44  1  0
 24 45  1  0
 25 46  1  0
 27 47  1  0
M  END
$$$$
