
     RDKit          3D

 47 49  0  0  0  0  0  0  0  0999 V2000
   -2.8798    2.7118    1.9351 C   0  0  0  0  0  0  0  0  0  0  0  0
   -1.8124    2.7722    0.9189 N   0  0  0  0  0  0  0  0  0  0  0  0
   -1.2899    4.1480    0.8550 C   0  0  0  0  0  0  0  0  0  0  0  0
   -0.7140    1.8290    1.2299 C   0  0  0  0  0  0  0  0  0  0  0  0
   -1.0641    0.3529    0.8724 C   0  0  0  0  0  0  0  0  0  0  0  0
   -0.0167   -0.6642    1.3127 C   0  0  0  0  0  0  0  0  0  0  0  0
   -0.3505   -2.0310    1.2467 C   0  0  0  0  0  0  0  0  0  0  0  0
    0.5726   -3.0121    1.6185 C   0  0  0  0  0  0  0  0  0  0  0  0
    1.8414   -2.6450    2.0673 C   0  0  0  0  0  0  0  0  0  0  0  0
    2.1866   -1.2958    2.1527 C   0  0  0  0  0  0  0  0  0  0  0  0
    1.2681   -0.3087    1.7826 C   0  0  0  0  0  0  0  0  0  0  0  0
   -1.4162    0.1124   -0.5560 N   0  0  0  0  0  0  0  0  0  0  0  0
   -2.8091    0.4440   -0.8872 C   0  0  0  0  0  0  0  0  0  0  0  0
   -0.3297    0.7909   -1.7533 S   0  0  0  0  0  0  0  0  0  0  0  0
   -0.4649    2.2875   -1.7918 O   0  0  0  0  0  0  0  0  0  0  0  0
   -0.6970    0.2583   -3.1102 O   0  0  0  0  0  0  0  0  0  0  0  0
    1.3476    0.3530   -1.4392 C   0  0  0  0  0  0  0  0  0  0  0  0
    2.3275    1.2947   -1.1212 C   0  0  0  0  0  0  0  0  0  0  0  0
    3.7987    0.4992   -0.8829 S   0  0  0  0  0  0  0  0  0  0  0  0
    3.2006   -1.0371   -1.1907 C   0  0  0  0  0  0  0  0  0  0  0  0
    3.8856   -2.2488   -1.1534 C   0  0  0  0  0  0  0  0  0  0  0  0
    3.1705   -3.4233   -1.4294 C   0  0  0  0  0  0  0  0  0  0  0  0
    1.7981   -3.3639   -1.7362 C   0  0  0  0  0  0  0  0  0  0  0  0
    1.1278   -2.1298   -1.7673 C   0  0  0  0  0  0  0  0  0  0  0  0
    1.8468   -0.9604   -1.4862 C   0  0  0  0  0  0  0  0  0  0  0  0
   -3.3804    1.7236    1.9220 H   0  0  0  0  0  0  0  0  0  0  0  0
   -2.4830    2.9099    2.9557 H   0  0  0  0  0  0  0  0  0  0  0  0
   -3.6698    3.4603    1.7087 H   0  0  0  0  0  0  0  0  0  0  0  0
   -0.5240    4.2355    0.0554 H   0  0  0  0  0  0  0  0  0  0  0  0
   -2.1046    4.8587    0.5972 H   0  0  0  0  0  0  0  0  0  0  0  0
   -0.8347    4.4510    1.8247 H   0  0  0  0  0  0  0  0  0  0  0  0
    0.2058    2.1173    0.6800 H   0  0  0  0  0  0  0  0  0  0  0  0
   -0.4568    1.8916    2.3123 H   0  0  0  0  0  0  0  0  0  0  0  0
   -1.9413    0.0907    1.5010 H   0  0  0  0  0  0  0  0  0  0  0  0
   -1.3276   -2.3376    0.8938 H   0  0  0  0  0  0  0  0  0  0  0  0
    0.3055   -4.0587    1.5513 H   0  0  0  0  0  0  0  0  0  0  0  0
    2.5580   -3.4061    2.3473 H   0  0  0  0  0  0  0  0  0  0  0  0
    3.1727   -1.0130    2.4979 H   0  0  0  0  0  0  0  0  0  0  0  0
    1.5840    0.7214    1.8532 H   0  0  0  0  0  0  0  0  0  0  0  0
   -3.0767   -0.0120   -1.8635 H   0  0  0  0  0  0  0  0  0  0  0  0
   -2.9610    1.5399   -0.9621 H   0  0  0  0  0  0  0  0  0  0  0  0
   -3.5080    0.0222   -0.1341 H   0  0  0  0  0  0  0  0  0  0  0  0
    2.1730    2.3614   -1.0314 H   0  0  0  0  0  0  0  0  0  0  0  0
    4.9399   -2.2853   -0.9122 H   0  0  0  0  0  0  0  0  0  0  0  0
    3.6759   -4.3798   -1.4037 H   0  0  0  0  0  0  0  0  0  0  0  0
    1.2536   -4.2760   -1.9427 H   0  0  0  0  0  0  0  0  0  0  0  0
    0.0695   -2.0993   -1.9892 H   0  0  0  0  0  0  0  0  0  0  0  0
  1  2  1  0
  2  3  1  0
  2  4  1  0
  4  5  1  0
  5  6  1  0
  6  7  2  0
  7  8  1  0
  8  9  2  0
  9 10  1  0
 10 11  2  0
  5 12  1  0
 12 13  1  0
 12 14  1  0
 14 15  2  0
 14 16  2  0
 14 17  1  0
 17 18  2  0
 18 19  1  0
 19 20  1  0
 20 21  2  0
 21 22  1  0
 22 23  2  0
 23 24  1  0
 24 25  2  0
  6 11  1  0
 25 17  1  0
 20 25  1  0
  1 26  1  0
  1 27  1  0
  1 28  1  0
  3 29  1  0
  3 30  1  0
  3 31  1  0
  4 32  1  0
  4 33  1  0
  5 34  1  0
  7 35  1  0
  8 36  1  0
  9 37  1  0
 10 38  1  0
 11 39  1  0
 13 40  1  0
 13 41  1  0
 13 42  1  0
 18 43  1  0
 21 44  1  0
 22 45  1  0
 23 46  1  0
 24 47  1  0
M  END
$$$$
