
     RDKit          3D

 46 48  0  0  0  0  0  0  0  0999 V2000
    1.4374   -3.8163   -3.2325 C   0  0  0  0  0  0  0  0  0  0  0  0
    2.0238   -2.4358   -3.2585 C   0  0  0  0  0  0  0  0  0  0  0  0
    3.3537   -2.2402   -3.6598 C   0  0  0  0  0  0  0  0  0  0  0  0
    3.8890   -0.9508   -3.7149 C   0  0  0  0  0  0  0  0  0  0  0  0
    3.1006    0.1522   -3.3777 C   0  0  0  0  0  0  0  0  0  0  0  0
    1.7634   -0.0258   -2.9879 C   0  0  0  0  0  0  0  0  0  0  0  0
    1.2273   -1.3242   -2.9439 C   0  0  0  0  0  0  0  0  0  0  0  0
    0.9155    1.1620   -2.5976 C   0  0  0  0  0  0  0  0  0  0  0  0
    0.9482    1.4569   -1.0790 C   0  0  0  0  0  0  0  0  0  0  0  0
    2.3285    1.9531   -0.6043 C   0  0  0  0  0  0  0  0  0  0  0  0
    2.7121    3.1133   -1.2926 O   0  0  0  0  0  0  0  0  0  0  0  0
    0.5472    0.2707   -0.3133 N   0  0  0  0  0  0  0  0  0  0  0  0
   -0.8089   -0.1988   -0.2789 C   0  0  0  0  0  0  0  0  0  0  0  0
   -1.7369    0.5249   -0.7305 O   0  0  0  0  0  0  0  0  0  0  0  0
   -1.1150   -1.5466    0.2394 C   0  0  0  0  0  0  0  0  0  0  0  0
   -0.2431   -2.6173    0.2784 C   0  0  0  0  0  0  0  0  0  0  0  0
   -0.9238   -3.7094    0.6651 N   0  0  0  0  0  0  0  0  0  0  0  0
   -2.1913   -3.3966    0.8784 N   0  0  0  0  0  0  0  0  0  0  0  0
   -2.3401   -2.0792    0.6318 C   0  0  0  0  0  0  0  0  0  0  0  0
   -3.6258   -1.3727    0.8039 C   0  0  0  0  0  0  0  0  0  0  0  0
   -4.8233   -2.0026    0.4272 C   0  0  0  0  0  0  0  0  0  0  0  0
   -6.0488   -1.3540    0.6067 C   0  0  0  0  0  0  0  0  0  0  0  0
   -6.0903   -0.0792    1.1770 C   0  0  0  0  0  0  0  0  0  0  0  0
   -4.9057    0.5470    1.5769 C   0  0  0  0  0  0  0  0  0  0  0  0
   -4.9598    2.1387    2.3121 Cl  0  0  0  0  0  0  0  0  0  0  0  0
   -3.6776   -0.1000    1.3988 C   0  0  0  0  0  0  0  0  0  0  0  0
    2.2152   -4.5665   -2.9752 H   0  0  0  0  0  0  0  0  0  0  0  0
    1.0168   -4.0574   -4.2311 H   0  0  0  0  0  0  0  0  0  0  0  0
    0.6295   -3.8861   -2.4730 H   0  0  0  0  0  0  0  0  0  0  0  0
    3.9755   -3.0852   -3.9289 H   0  0  0  0  0  0  0  0  0  0  0  0
    4.9176   -0.8061   -4.0191 H   0  0  0  0  0  0  0  0  0  0  0  0
    3.5322    1.1445   -3.4193 H   0  0  0  0  0  0  0  0  0  0  0  0
    0.1918   -1.4703   -2.6620 H   0  0  0  0  0  0  0  0  0  0  0  0
    1.2410    2.0621   -3.1631 H   0  0  0  0  0  0  0  0  0  0  0  0
   -0.1356    0.9772   -2.9084 H   0  0  0  0  0  0  0  0  0  0  0  0
    0.2219    2.2741   -0.8715 H   0  0  0  0  0  0  0  0  0  0  0  0
    3.0970    1.1689   -0.7666 H   0  0  0  0  0  0  0  0  0  0  0  0
    2.2959    2.1568    0.4905 H   0  0  0  0  0  0  0  0  0  0  0  0
    2.1625    3.8552   -0.9275 H   0  0  0  0  0  0  0  0  0  0  0  0
    1.2729   -0.2590    0.2211 H   0  0  0  0  0  0  0  0  0  0  0  0
    0.8023   -2.6174   -0.0017 H   0  0  0  0  0  0  0  0  0  0  0  0
   -0.5313   -4.6708    0.7696 H   0  0  0  0  0  0  0  0  0  0  0  0
   -4.8080   -2.9908   -0.0164 H   0  0  0  0  0  0  0  0  0  0  0  0
   -6.9671   -1.8409    0.3047 H   0  0  0  0  0  0  0  0  0  0  0  0
   -7.0425    0.4170    1.3146 H   0  0  0  0  0  0  0  0  0  0  0  0
   -2.7701    0.3820    1.7406 H   0  0  0  0  0  0  0  0  0  0  0  0
  1  2  1  0
  2  3  2  0
  3  4  1  0
  4  5  2  0
  5  6  1  0
  6  7  2  0
  6  8  1  0
  8  9  1  0
  9 10  1  0
 10 11  1  0
  9 12  1  0
 12 13  1  0
 13 14  2  0
 13 15  1  0
 15 16  2  0
 16 17  1  0
 17 18  1  0
 18 19  2  0
 19 20  1  0
 20 21  2  0
 21 22  1  0
 22 23  2  0
 23 24  1  0
 24 25  1  0
 24 26  2  0
  2  7  1  0
 19 15  1  0
 20 26  1  0
  1 27  1  0
  1 28  1  0
  1 29  1  0
  3 30  1  0
  4 31  1  0
  5 32  1  0
  7 33  1  0
  8 34  1  0
  8 35  1  0
  9 36  1  0
 10 37  1  0
 10 38  1  0
 11 39  1  0
 12 40  1  0
 16 41  1  0
 17 42  1  0
 21 43  1  0
 22 44  1  0
 23 45  1  0
 26 46  1  0
M  END
$$$$
