
     RDKit          3D

 41 44  0  0  0  0  0  0  0  0999 V2000
    2.8331    0.5937    2.0803 O   0  0  0  0  0  0  0  0  0  0  0  0
    3.0008   -0.6191    1.7754 C   0  0  0  0  0  0  0  0  0  0  0  0
    1.8740   -1.5121    1.7627 N   0  0  0  0  0  0  0  0  0  0  0  0
    0.5107   -1.0742    1.6271 C   0  0  0  0  0  0  0  0  0  0  0  0
   -0.5149   -1.8236    2.2201 C   0  0  0  0  0  0  0  0  0  0  0  0
   -1.8467   -1.4269    2.0875 C   0  0  0  0  0  0  0  0  0  0  0  0
   -2.1703   -0.2884    1.3468 C   0  0  0  0  0  0  0  0  0  0  0  0
   -1.1617    0.4598    0.7174 C   0  0  0  0  0  0  0  0  0  0  0  0
    0.1782    0.0600    0.8634 C   0  0  0  0  0  0  0  0  0  0  0  0
   -1.4907    1.6632   -0.0804 C   0  0  0  0  0  0  0  0  0  0  0  0
   -0.6943    2.7517   -0.1864 N   0  0  0  0  0  0  0  0  0  0  0  0
   -1.2551    3.6486   -0.9875 N   0  0  0  0  0  0  0  0  0  0  0  0
   -2.4297    3.1321   -1.3918 C   0  0  0  0  0  0  0  0  0  0  0  0
   -3.3768    3.7230   -2.3817 C   0  0  0  0  0  0  0  0  0  0  0  0
   -4.6762    2.8869   -2.3871 C   0  0  0  0  0  0  0  0  0  0  0  0
   -4.3949    1.4903   -2.4203 O   0  0  0  0  0  0  0  0  0  0  0  0
   -3.8141    1.0581   -1.1941 C   0  0  0  0  0  0  0  0  0  0  0  0
   -2.6065    1.8852   -0.8671 C   0  0  0  0  0  0  0  0  0  0  0  0
    4.3675   -1.1150    1.4832 C   0  0  0  0  0  0  0  0  0  0  0  0
    5.4946   -0.3683    1.8688 C   0  0  0  0  0  0  0  0  0  0  0  0
    6.7468   -0.8217    1.5950 N   0  0  0  0  0  0  0  0  0  0  0  0
    6.9574   -1.9937    0.9414 C   0  0  0  0  0  0  0  0  0  0  0  0
    5.8730   -2.7682    0.5263 C   0  0  0  0  0  0  0  0  0  0  0  0
    6.0948   -3.9647   -0.1517 O   0  0  0  0  0  0  0  0  0  0  0  0
    4.5733   -2.3245    0.7973 C   0  0  0  0  0  0  0  0  0  0  0  0
    2.0438   -2.5202    1.9792 H   0  0  0  0  0  0  0  0  0  0  0  0
   -0.2797   -2.7089    2.7976 H   0  0  0  0  0  0  0  0  0  0  0  0
   -2.6305   -2.0006    2.5654 H   0  0  0  0  0  0  0  0  0  0  0  0
   -3.2062    0.0138    1.2855 H   0  0  0  0  0  0  0  0  0  0  0  0
    0.9574    0.6075    0.3497 H   0  0  0  0  0  0  0  0  0  0  0  0
    0.2251    2.8950    0.2870 H   0  0  0  0  0  0  0  0  0  0  0  0
   -3.6012    4.7771   -2.1131 H   0  0  0  0  0  0  0  0  0  0  0  0
   -2.9099    3.6933   -3.3892 H   0  0  0  0  0  0  0  0  0  0  0  0
   -5.3028    3.1433   -1.5020 H   0  0  0  0  0  0  0  0  0  0  0  0
   -5.2665    3.1519   -3.2892 H   0  0  0  0  0  0  0  0  0  0  0  0
   -4.5584    1.1284   -0.3711 H   0  0  0  0  0  0  0  0  0  0  0  0
   -3.5100   -0.0038   -1.3019 H   0  0  0  0  0  0  0  0  0  0  0  0
    5.3821    0.5707    2.3952 H   0  0  0  0  0  0  0  0  0  0  0  0
    7.9690   -2.3211    0.7409 H   0  0  0  0  0  0  0  0  0  0  0  0
    5.3261   -4.5460   -0.4649 H   0  0  0  0  0  0  0  0  0  0  0  0
    3.7349   -2.9163    0.4539 H   0  0  0  0  0  0  0  0  0  0  0  0
  1  2  2  0
  2  3  1  0
  3  4  1  0
  4  5  2  0
  5  6  1  0
  6  7  2  0
  7  8  1  0
  8  9  2  0
  8 10  1  0
 10 11  1  0
 11 12  1  0
 12 13  2  0
 13 14  1  0
 14 15  1  0
 15 16  1  0
 16 17  1  0
 17 18  1  0
  2 19  1  0
 19 20  2  0
 20 21  1  0
 21 22  2  0
 22 23  1  0
 23 24  1  0
 23 25  2  0
  4  9  1  0
 10 18  2  0
 18 13  1  0
 25 19  1  0
  3 26  1  0
  5 27  1  0
  6 28  1  0
  7 29  1  0
  9 30  1  0
 11 31  1  0
 14 32  1  0
 14 33  1  0
 15 34  1  0
 15 35  1  0
 17 36  1  0
 17 37  1  0
 20 38  1  0
 22 39  1  0
 24 40  1  0
 25 41  1  0
M  END
$$$$
