
     RDKit          3D

 42 45  0  0  0  0  0  0  0  0999 V2000
   -1.5268    0.6646   -1.7805 O   0  0  0  0  0  0  0  0  0  0  0  0
   -1.6905    0.8700   -0.5472 C   0  0  0  0  0  0  0  0  0  0  0  0
   -0.5741    0.8510    0.3554 N   0  0  0  0  0  0  0  0  0  0  0  0
    0.7854    0.6157   -0.0461 C   0  0  0  0  0  0  0  0  0  0  0  0
    1.3119    1.1570   -1.2283 C   0  0  0  0  0  0  0  0  0  0  0  0
    2.6448    0.9254   -1.5735 C   0  0  0  0  0  0  0  0  0  0  0  0
    3.4593    0.1580   -0.7221 C   0  0  0  0  0  0  0  0  0  0  0  0
    2.9291   -0.3347    0.4318 N   0  0  0  0  0  0  0  0  0  0  0  0
    1.6350   -0.1209    0.7874 C   0  0  0  0  0  0  0  0  0  0  0  0
    4.8393   -0.1119   -1.0291 N   0  0  0  0  0  0  0  0  0  0  0  0
    5.5314    0.2596   -2.1275 C   0  0  0  0  0  0  0  0  0  0  0  0
    6.8204   -0.2132   -2.0125 C   0  0  0  0  0  0  0  0  0  0  0  0
    6.8462   -0.8749   -0.8021 C   0  0  0  0  0  0  0  0  0  0  0  0
    5.6328   -0.8011   -0.2232 N   0  0  0  0  0  0  0  0  0  0  0  0
   -3.0671    1.1479   -0.0101 C   0  0  0  0  0  0  0  0  0  0  0  0
   -4.2187    0.4404   -0.7195 C   0  0  0  0  0  0  0  0  0  0  0  0
   -3.7995   -0.0106    0.6753 C   0  0  0  0  0  0  0  0  0  0  0  0
   -3.1462   -1.4137    0.7170 C   0  0  0  0  0  0  0  0  0  0  0  0
   -4.2196   -2.5074    0.7865 C   0  0  0  0  0  0  0  0  0  0  0  0
   -4.2085   -3.0229    2.2136 C   0  0  0  0  0  0  0  0  0  0  0  0
   -2.7850   -2.8256    2.6931 C   0  0  0  0  0  0  0  0  0  0  0  0
   -2.2822   -1.5808    1.9770 C   0  0  0  0  0  0  0  0  0  0  0  0
   -0.7791    0.8952    1.3792 H   0  0  0  0  0  0  0  0  0  0  0  0
    0.7061    1.7811   -1.8712 H   0  0  0  0  0  0  0  0  0  0  0  0
    3.0255    1.3549   -2.4884 H   0  0  0  0  0  0  0  0  0  0  0  0
    1.2642   -0.5348    1.7161 H   0  0  0  0  0  0  0  0  0  0  0  0
    5.1445    0.8281   -2.9612 H   0  0  0  0  0  0  0  0  0  0  0  0
    7.6325   -0.0936   -2.7169 H   0  0  0  0  0  0  0  0  0  0  0  0
    7.6986   -1.3811   -0.3695 H   0  0  0  0  0  0  0  0  0  0  0  0
   -3.3022    2.1607    0.3793 H   0  0  0  0  0  0  0  0  0  0  0  0
   -5.1649    1.0211   -0.7374 H   0  0  0  0  0  0  0  0  0  0  0  0
   -3.9418   -0.2463   -1.5485 H   0  0  0  0  0  0  0  0  0  0  0  0
   -4.5126    0.2800    1.4770 H   0  0  0  0  0  0  0  0  0  0  0  0
   -2.5178   -1.5974   -0.1834 H   0  0  0  0  0  0  0  0  0  0  0  0
   -3.9462   -3.3387    0.0990 H   0  0  0  0  0  0  0  0  0  0  0  0
   -5.2324   -2.1437    0.5042 H   0  0  0  0  0  0  0  0  0  0  0  0
   -4.5104   -4.0915    2.2641 H   0  0  0  0  0  0  0  0  0  0  0  0
   -4.9001   -2.4130    2.8362 H   0  0  0  0  0  0  0  0  0  0  0  0
   -2.1686   -3.7031    2.3961 H   0  0  0  0  0  0  0  0  0  0  0  0
   -2.7440   -2.7063    3.7976 H   0  0  0  0  0  0  0  0  0  0  0  0
   -2.3775   -0.7056    2.6581 H   0  0  0  0  0  0  0  0  0  0  0  0
   -1.2095   -1.6979    1.7090 H   0  0  0  0  0  0  0  0  0  0  0  0
  1  2  2  0
  2  3  1  0
  3  4  1  0
  4  5  2  0
  5  6  1  0
  6  7  2  0
  7  8  1  0
  8  9  2  0
  7 10  1  0
 10 11  1  0
 11 12  2  0
 12 13  1  0
 13 14  2  0
  2 15  1  0
 15 16  1  0
 16 17  1  0
 17 18  1  0
 18 19  1  0
 19 20  1  0
 20 21  1  0
 21 22  1  0
  4  9  1  0
 14 10  1  0
 17 15  1  0
 22 18  1  0
  3 23  1  0
  5 24  1  0
  6 25  1  0
  9 26  1  0
 11 27  1  0
 12 28  1  0
 13 29  1  0
 15 30  1  0
 16 31  1  0
 16 32  1  0
 17 33  1  0
 18 34  1  0
 19 35  1  0
 19 36  1  0
 20 37  1  0
 20 38  1  0
 21 39  1  0
 21 40  1  0
 22 41  1  0
 22 42  1  0
M  END
$$$$
