
     RDKit          3D

  0  0  0  0  0  0  0  0  0  0999 V3000
M  V30 BEGIN CTAB
M  V30 COUNTS 55 59 0 0 0
M  V30 BEGIN ATOM
M  V30 1 C -5.041323 2.118022 -2.702819 0
M  V30 2 N -3.789367 1.810655 -1.993586 0
M  V30 3 C -3.206676 0.510556 -2.353036 0
M  V30 4 C -1.689254 0.635634 -2.167005 0
M  V30 5 C -1.481150 2.044456 -1.615017 0 CFG=2
M  V30 6 C -2.706785 2.794792 -2.143544 0 CFG=1
M  V30 7 C -2.525318 3.271351 -3.620460 0
M  V30 8 C -1.114527 3.772385 -3.976186 0
M  V30 9 C -0.210128 3.914121 -2.761170 0
M  V30 10 N -0.193786 2.663040 -1.995089 0
M  V30 11 C 0.997222 2.364488 -1.234618 0
M  V30 12 O 1.713150 3.314774 -0.812090 0
M  V30 13 C 1.383680 0.943799 -0.891927 0
M  V30 14 C 2.891604 0.684310 -0.954159 0
M  V30 15 C 3.139981 -0.411699 0.072252 0
M  V30 16 N 2.013176 -0.356908 0.996302 0
M  V30 17 C 0.979049 0.557438 0.529473 0
M  V30 18 C 1.924337 -1.159659 2.201244 0
M  V30 19 C 2.818353 -2.230455 2.404066 0
M  V30 20 C 2.747630 -3.018819 3.554709 0
M  V30 21 C 1.783025 -2.758654 4.537427 0
M  V30 22 C 0.891252 -1.693145 4.349374 0
M  V30 23 C 0.956323 -0.899381 3.199432 0
M  V30 24 F 0.079860 0.129000 3.090397 0
M  V30 25 C 1.709173 -3.592967 5.755204 0
M  V30 26 N 0.815036 -3.414877 6.749648 0
M  V30 27 N 1.092753 -4.360586 7.632107 0
M  V30 28 N 2.110204 -5.078871 7.190369 0
M  V30 29 N 2.526339 -4.631967 6.018615 0
M  V30 30 H -5.839121 1.430971 -2.350443 0
M  V30 31 H -4.941821 1.998983 -3.802443 0
M  V30 32 H -5.362553 3.156509 -2.474007 0
M  V30 33 H -3.616012 -0.272243 -1.678863 0
M  V30 34 H -3.433526 0.229796 -3.406585 0
M  V30 35 H -1.171745 0.518354 -3.144861 0
M  V30 36 H -1.330694 -0.137870 -1.457011 0
M  V30 37 H -1.554997 2.009147 -0.503475 0
M  V30 38 H -2.908875 3.675792 -1.494762 0
M  V30 39 H -2.762448 2.445026 -4.324327 0
M  V30 40 H -3.258007 4.083670 -3.819608 0
M  V30 41 H -1.182826 4.752380 -4.496814 0
M  V30 42 H -0.638147 3.056134 -4.682243 0
M  V30 43 H 0.813244 4.168455 -3.116365 0
M  V30 44 H -0.570448 4.743293 -2.113649 0
M  V30 45 H 0.913589 0.243239 -1.612019 0
M  V30 46 H 3.474578 1.584432 -0.660135 0
M  V30 47 H 3.207630 0.365835 -1.971617 0
M  V30 48 H 3.164010 -1.403018 -0.430445 0
M  V30 49 H 4.095806 -0.231460 0.610890 0
M  V30 50 H 0.953120 1.450271 1.192162 0
M  V30 51 H -0.010593 0.053479 0.525304 0
M  V30 52 H 3.574869 -2.471283 1.670114 0
M  V30 53 H 3.449915 -3.834626 3.673468 0
M  V30 54 H 0.140793 -1.468421 5.097253 0
M  V30 55 H 2.528341 -5.889104 7.698069 0
M  V30 END ATOM
M  V30 BEGIN BOND
M  V30 1 1 1 2
M  V30 2 1 2 3
M  V30 3 1 3 4
M  V30 4 1 4 5
M  V30 5 1 5 6
M  V30 6 1 6 7
M  V30 7 1 7 8
M  V30 8 1 8 9
M  V30 9 1 9 10
M  V30 10 1 10 11
M  V30 11 2 11 12
M  V30 12 1 11 13
M  V30 13 1 13 14
M  V30 14 1 14 15
M  V30 15 1 15 16
M  V30 16 1 16 17
M  V30 17 1 16 18
M  V30 18 2 18 19
M  V30 19 1 19 20
M  V30 20 2 20 21
M  V30 21 1 21 22
M  V30 22 2 22 23
M  V30 23 1 23 24
M  V30 24 1 21 25
M  V30 25 1 25 26
M  V30 26 2 26 27
M  V30 27 1 27 28
M  V30 28 1 28 29
M  V30 29 1 6 2
M  V30 30 1 10 5
M  V30 31 1 17 13
M  V30 32 1 23 18
M  V30 33 2 25 29
M  V30 34 1 1 30
M  V30 35 1 1 31
M  V30 36 1 1 32
M  V30 37 1 3 33
M  V30 38 1 3 34
M  V30 39 1 4 35
M  V30 40 1 4 36
M  V30 41 1 5 37 CFG=1
M  V30 42 1 6 38 CFG=1
M  V30 43 1 7 39
M  V30 44 1 7 40
M  V30 45 1 8 41
M  V30 46 1 8 42
M  V30 47 1 9 43
M  V30 48 1 9 44
M  V30 49 1 13 45
M  V30 50 1 14 46
M  V30 51 1 14 47
M  V30 52 1 15 48
M  V30 53 1 15 49
M  V30 54 1 17 50
M  V30 55 1 17 51
M  V30 56 1 19 52
M  V30 57 1 20 53
M  V30 58 1 22 54
M  V30 59 1 28 55
M  V30 END BOND
M  V30 BEGIN COLLECTION
M  V30 MDLV30/STERAC1 ATOMS=(2 5 6)
M  V30 END COLLECTION
M  V30 END CTAB
M  END
>  <_CXSMILES_Data>  (1) 
|&1:4,5,r|

$$$$
