
     RDKit          3D

 43 45  0  0  0  0  0  0  0  0999 V2000
   -0.1543    2.4138   -1.0937 O   0  0  0  0  0  0  0  0  0  0  0  0
   -0.1590    1.2145   -0.7017 C   0  0  0  0  0  0  0  0  0  0  0  0
    0.2680    0.9010    0.6350 N   0  0  0  0  0  0  0  0  0  0  0  0
    1.1164    1.7541    1.4234 C   0  0  0  0  0  0  0  0  0  0  0  0
    2.1032    2.5576    0.8259 C   0  0  0  0  0  0  0  0  0  0  0  0
    2.9285    3.3615    1.6144 C   0  0  0  0  0  0  0  0  0  0  0  0
    2.7883    3.3618    3.0035 C   0  0  0  0  0  0  0  0  0  0  0  0
    1.8299    2.5511    3.6217 C   0  0  0  0  0  0  0  0  0  0  0  0
    0.9952    1.7440    2.8224 C   0  0  0  0  0  0  0  0  0  0  0  0
    1.7403    2.5863    5.0233 O   0  0  0  0  0  0  0  0  0  0  0  0
    0.9002    1.7551    5.8246 C   0  0  0  0  0  0  0  0  0  0  0  0
    1.4717    0.3440    5.9237 C   0  0  0  0  0  0  0  0  0  0  0  0
    0.6678   -0.4273    6.7426 F   0  0  0  0  0  0  0  0  0  0  0  0
   -0.6547    0.1518   -1.6101 C   0  0  0  0  0  0  0  0  0  0  0  0
   -1.4310    0.4861   -2.7338 C   0  0  0  0  0  0  0  0  0  0  0  0
   -1.8972   -0.5096   -3.5968 C   0  0  0  0  0  0  0  0  0  0  0  0
   -1.6065   -1.8580   -3.3509 C   0  0  0  0  0  0  0  0  0  0  0  0
   -0.8017   -2.1934   -2.2493 C   0  0  0  0  0  0  0  0  0  0  0  0
   -0.3345   -1.1990   -1.3849 C   0  0  0  0  0  0  0  0  0  0  0  0
   -2.0782   -2.8603   -4.2674 N   0  0  0  0  0  0  0  0  0  0  0  0
   -2.4873   -4.1798   -3.8797 C   0  0  0  0  0  0  0  0  0  0  0  0
   -2.7093   -4.4863   -2.5715 N   0  0  0  0  0  0  0  0  0  0  0  0
   -3.1246   -5.7255   -2.2020 C   0  0  0  0  0  0  0  0  0  0  0  0
   -3.3397   -6.7038   -3.1712 C   0  0  0  0  0  0  0  0  0  0  0  0
   -3.1219   -6.3727   -4.5076 C   0  0  0  0  0  0  0  0  0  0  0  0
   -2.7061   -5.1219   -4.8366 N   0  0  0  0  0  0  0  0  0  0  0  0
   -0.1509    0.0643    1.1002 H   0  0  0  0  0  0  0  0  0  0  0  0
    2.2518    2.5491   -0.2457 H   0  0  0  0  0  0  0  0  0  0  0  0
    3.6845    3.9802    1.1483 H   0  0  0  0  0  0  0  0  0  0  0  0
    3.4348    3.9883    3.6050 H   0  0  0  0  0  0  0  0  0  0  0  0
    0.2411    1.1136    3.2716 H   0  0  0  0  0  0  0  0  0  0  0  0
   -0.1371    1.7403    5.4282 H   0  0  0  0  0  0  0  0  0  0  0  0
    0.8573    2.1879    6.8463 H   0  0  0  0  0  0  0  0  0  0  0  0
    1.5231   -0.1295    4.9220 H   0  0  0  0  0  0  0  0  0  0  0  0
    2.4948    0.3828    6.3538 H   0  0  0  0  0  0  0  0  0  0  0  0
   -1.6851    1.5179   -2.9429 H   0  0  0  0  0  0  0  0  0  0  0  0
   -2.4965   -0.2308   -4.4545 H   0  0  0  0  0  0  0  0  0  0  0  0
   -0.5077   -3.2193   -2.0719 H   0  0  0  0  0  0  0  0  0  0  0  0
    0.3001   -1.4901   -0.5582 H   0  0  0  0  0  0  0  0  0  0  0  0
   -2.2094   -2.5895   -5.2685 H   0  0  0  0  0  0  0  0  0  0  0  0
   -3.2903   -5.9492   -1.1567 H   0  0  0  0  0  0  0  0  0  0  0  0
   -3.6718   -7.6956   -2.8932 H   0  0  0  0  0  0  0  0  0  0  0  0
   -3.2857   -7.1080   -5.2839 H   0  0  0  0  0  0  0  0  0  0  0  0
  1  2  2  0
  2  3  1  0
  3  4  1  0
  4  5  2  0
  5  6  1  0
  6  7  2  0
  7  8  1  0
  8  9  2  0
  8 10  1  0
 10 11  1  0
 11 12  1  0
 12 13  1  0
  2 14  1  0
 14 15  2  0
 15 16  1  0
 16 17  2  0
 17 18  1  0
 18 19  2  0
 17 20  1  0
 20 21  1  0
 21 22  2  0
 22 23  1  0
 23 24  2  0
 24 25  1  0
 25 26  2  0
  4  9  1  0
 14 19  1  0
 21 26  1  0
  3 27  1  0
  5 28  1  0
  6 29  1  0
  7 30  1  0
  9 31  1  0
 11 32  1  0
 11 33  1  0
 12 34  1  0
 12 35  1  0
 15 36  1  0
 16 37  1  0
 18 38  1  0
 19 39  1  0
 20 40  1  0
 23 41  1  0
 24 42  1  0
 25 43  1  0
M  END
$$$$
