
     RDKit          3D

 49 51  0  0  0  0  0  0  0  0999 V2000
   -4.0588    2.6510   -5.2724 C   0  0  0  0  0  0  0  0  0  0  0  0
   -2.7220    2.9043   -5.6880 O   0  0  0  0  0  0  0  0  0  0  0  0
   -1.6177    2.6605   -4.8676 C   0  0  0  0  0  0  0  0  0  0  0  0
   -0.3702    2.9277   -5.3320 N   0  0  0  0  0  0  0  0  0  0  0  0
    0.7294    2.6967   -4.5672 C   0  0  0  0  0  0  0  0  0  0  0  0
    2.0912    2.9912   -5.1106 C   0  0  0  0  0  0  0  0  0  0  0  0
    0.5794    2.1809   -3.2761 C   0  0  0  0  0  0  0  0  0  0  0  0
   -0.7138    1.9228   -2.7991 C   0  0  0  0  0  0  0  0  0  0  0  0
   -1.7782    2.1580   -3.6132 N   0  0  0  0  0  0  0  0  0  0  0  0
   -0.9306    1.3721   -1.4860 N   0  0  0  0  0  0  0  0  0  0  0  0
   -1.9823    0.3617   -1.3038 C   0  0  0  0  0  0  0  0  0  0  0  0
   -2.0968   -0.0919    0.1589 C   0  0  0  0  0  0  0  0  0  0  0  0
   -0.7648   -0.3189    0.7459 N   0  0  0  0  0  0  0  0  0  0  0  0
    0.3199    0.6455    0.4862 C   0  0  0  0  0  0  0  0  0  0  0  0
   -0.1765    1.8468   -0.3197 C   0  0  0  0  0  0  0  0  0  0  0  0
   -0.5929   -1.3705    1.7244 C   0  0  0  0  0  0  0  0  0  0  0  0
   -1.6108   -1.9013    2.2499 O   0  0  0  0  0  0  0  0  0  0  0  0
    0.7778   -1.8396    2.1729 C   0  0  0  0  0  0  0  0  0  0  0  0
    1.1145   -1.2371    3.5597 C   0  0  0  0  0  0  0  0  0  0  0  0
    2.1733   -2.0707    4.2878 C   0  0  0  0  0  0  0  0  0  0  0  0
    1.6795   -3.5060    4.5617 C   0  0  0  0  0  0  0  0  0  0  0  0
    0.6454   -4.0075    3.5338 C   0  0  0  0  0  0  0  0  0  0  0  0
    0.8777   -3.3905    2.1493 C   0  0  0  0  0  0  0  0  0  0  0  0
   -4.3000    3.2601   -4.3756 H   0  0  0  0  0  0  0  0  0  0  0  0
   -4.7539    2.9271   -6.0915 H   0  0  0  0  0  0  0  0  0  0  0  0
   -4.1867    1.5727   -5.0387 H   0  0  0  0  0  0  0  0  0  0  0  0
    2.0235    3.3574   -6.1572 H   0  0  0  0  0  0  0  0  0  0  0  0
    2.5809    3.7712   -4.4901 H   0  0  0  0  0  0  0  0  0  0  0  0
    2.7100    2.0691   -5.0952 H   0  0  0  0  0  0  0  0  0  0  0  0
    1.4530    1.9619   -2.6754 H   0  0  0  0  0  0  0  0  0  0  0  0
   -1.7437   -0.5217   -1.9352 H   0  0  0  0  0  0  0  0  0  0  0  0
   -2.9625    0.7716   -1.6304 H   0  0  0  0  0  0  0  0  0  0  0  0
   -2.7083   -1.0202    0.1857 H   0  0  0  0  0  0  0  0  0  0  0  0
   -2.6266    0.6856    0.7509 H   0  0  0  0  0  0  0  0  0  0  0  0
    1.1260    0.1461   -0.0927 H   0  0  0  0  0  0  0  0  0  0  0  0
    0.7378    1.0148    1.4467 H   0  0  0  0  0  0  0  0  0  0  0  0
   -0.8448    2.4682    0.3151 H   0  0  0  0  0  0  0  0  0  0  0  0
    0.6844    2.4845   -0.6079 H   0  0  0  0  0  0  0  0  0  0  0  0
    1.5419   -1.4770    1.4548 H   0  0  0  0  0  0  0  0  0  0  0  0
    1.4898   -0.1987    3.4348 H   0  0  0  0  0  0  0  0  0  0  0  0
    0.2053   -1.1884    4.2003 H   0  0  0  0  0  0  0  0  0  0  0  0
    3.0942   -2.1067    3.6648 H   0  0  0  0  0  0  0  0  0  0  0  0
    2.4381   -1.5795    5.2489 H   0  0  0  0  0  0  0  0  0  0  0  0
    2.5569   -4.1890    4.5645 H   0  0  0  0  0  0  0  0  0  0  0  0
    1.2228   -3.5520    5.5745 H   0  0  0  0  0  0  0  0  0  0  0  0
    0.7023   -5.1152    3.4618 H   0  0  0  0  0  0  0  0  0  0  0  0
   -0.3787   -3.7480    3.8807 H   0  0  0  0  0  0  0  0  0  0  0  0
    1.8936   -3.6868    1.8045 H   0  0  0  0  0  0  0  0  0  0  0  0
    0.1582   -3.8263    1.4213 H   0  0  0  0  0  0  0  0  0  0  0  0
  1  2  1  0
  2  3  1  0
  3  4  2  0
  4  5  1  0
  5  6  1  0
  5  7  2  0
  7  8  1  0
  8  9  2  0
  8 10  1  0
 10 11  1  0
 11 12  1  0
 12 13  1  0
 13 14  1  0
 14 15  1  0
 13 16  1  0
 16 17  2  0
 16 18  1  0
 18 19  1  0
 19 20  1  0
 20 21  1  0
 21 22  1  0
 22 23  1  0
  3  9  1  0
 15 10  1  0
 23 18  1  0
  1 24  1  0
  1 25  1  0
  1 26  1  0
  6 27  1  0
  6 28  1  0
  6 29  1  0
  7 30  1  0
 11 31  1  0
 11 32  1  0
 12 33  1  0
 12 34  1  0
 14 35  1  0
 14 36  1  0
 15 37  1  0
 15 38  1  0
 18 39  1  0
 19 40  1  0
 19 41  1  0
 20 42  1  0
 20 43  1  0
 21 44  1  0
 21 45  1  0
 22 46  1  0
 22 47  1  0
 23 48  1  0
 23 49  1  0
M  END
$$$$
