
     RDKit          3D

 49 51  0  0  0  0  0  0  0  0999 V2000
   -2.1303    1.9684   -2.7359 C   0  0  0  0  0  0  0  0  0  0  0  0
   -1.8788    1.1551   -1.4547 C   0  0  0  0  0  0  0  0  0  0  0  0
   -3.0731    0.4899   -1.1099 O   0  0  0  0  0  0  0  0  0  0  0  0
   -3.6732    1.2095   -0.0534 C   0  0  0  0  0  0  0  0  0  0  0  0
   -2.7754    2.3662    0.3563 C   0  0  0  0  0  0  0  0  0  0  0  0
   -1.4299    1.9768   -0.2202 C   0  0  0  0  0  0  0  0  0  0  0  0
   -0.5490    3.1967   -0.5760 C   0  0  0  0  0  0  0  0  0  0  0  0
   -0.7060    1.0942    0.7217 N   0  0  0  0  0  0  0  0  0  0  0  0
   -0.2447    1.4859    2.0320 C   0  0  0  0  0  0  0  0  0  0  0  0
   -0.5181    2.6288    2.4887 O   0  0  0  0  0  0  0  0  0  0  0  0
    0.6083    0.5585    2.8727 C   0  0  0  0  0  0  0  0  0  0  0  0
    2.0782    0.5918    2.4080 C   0  0  0  0  0  0  0  0  0  0  0  0
    2.2867   -0.1920    1.1065 C   0  0  0  0  0  0  0  0  0  0  0  0
    1.6079   -1.4963    1.1421 N   0  0  0  0  0  0  0  0  0  0  0  0
    0.9601   -1.9595    2.3771 C   0  0  0  0  0  0  0  0  0  0  0  0
    0.0261   -0.8816    2.9492 C   0  0  0  0  0  0  0  0  0  0  0  0
    1.7274   -2.3792    0.0104 C   0  0  0  0  0  0  0  0  0  0  0  0
    1.3599   -1.9349   -1.2711 C   0  0  0  0  0  0  0  0  0  0  0  0
    1.4659   -2.7863   -2.3742 C   0  0  0  0  0  0  0  0  0  0  0  0
    1.9458   -4.0905   -2.2109 C   0  0  0  0  0  0  0  0  0  0  0  0
    2.0557   -4.9666   -3.3479 C   0  0  0  0  0  0  0  0  0  0  0  0
    2.1441   -5.6708   -4.2619 N   0  0  0  0  0  0  0  0  0  0  0  0
    2.3223   -4.5396   -0.9398 C   0  0  0  0  0  0  0  0  0  0  0  0
    2.2160   -3.6906    0.1669 C   0  0  0  0  0  0  0  0  0  0  0  0
    2.6186   -4.1387    1.3826 F   0  0  0  0  0  0  0  0  0  0  0  0
   -2.8549    2.7892   -2.5504 H   0  0  0  0  0  0  0  0  0  0  0  0
   -2.5504    1.3041   -3.5207 H   0  0  0  0  0  0  0  0  0  0  0  0
   -1.1799    2.3894   -3.1261 H   0  0  0  0  0  0  0  0  0  0  0  0
   -1.1103    0.3948   -1.7123 H   0  0  0  0  0  0  0  0  0  0  0  0
   -3.8160    0.5219    0.8080 H   0  0  0  0  0  0  0  0  0  0  0  0
   -4.6688    1.5841   -0.3744 H   0  0  0  0  0  0  0  0  0  0  0  0
   -3.1508    3.3048   -0.1094 H   0  0  0  0  0  0  0  0  0  0  0  0
   -2.7736    2.4977    1.4579 H   0  0  0  0  0  0  0  0  0  0  0  0
   -0.2599    3.7653    0.3292 H   0  0  0  0  0  0  0  0  0  0  0  0
   -1.0820    3.9099   -1.2386 H   0  0  0  0  0  0  0  0  0  0  0  0
    0.3780    2.8558   -1.0844 H   0  0  0  0  0  0  0  0  0  0  0  0
   -0.5029    0.1148    0.4234 H   0  0  0  0  0  0  0  0  0  0  0  0
    0.6013    0.9649    3.9099 H   0  0  0  0  0  0  0  0  0  0  0  0
    2.4176    1.6421    2.2706 H   0  0  0  0  0  0  0  0  0  0  0  0
    2.7166    0.1438    3.2012 H   0  0  0  0  0  0  0  0  0  0  0  0
    1.9044    0.4136    0.2588 H   0  0  0  0  0  0  0  0  0  0  0  0
    3.3755   -0.3468    0.9463 H   0  0  0  0  0  0  0  0  0  0  0  0
    1.7439   -2.2060    3.1259 H   0  0  0  0  0  0  0  0  0  0  0  0
    0.3661   -2.8809    2.1889 H   0  0  0  0  0  0  0  0  0  0  0  0
   -0.1766   -1.1367    4.0127 H   0  0  0  0  0  0  0  0  0  0  0  0
   -0.9577   -0.9479    2.4358 H   0  0  0  0  0  0  0  0  0  0  0  0
    0.9768   -0.9344   -1.4164 H   0  0  0  0  0  0  0  0  0  0  0  0
    1.1717   -2.4279   -3.3535 H   0  0  0  0  0  0  0  0  0  0  0  0
    2.7031   -5.5451   -0.8057 H   0  0  0  0  0  0  0  0  0  0  0  0
  1  2  1  0
  2  3  1  0
  3  4  1  0
  4  5  1  0
  5  6  1  0
  6  7  1  0
  6  8  1  0
  8  9  1  0
  9 10  2  0
  9 11  1  0
 11 12  1  0
 12 13  1  0
 13 14  1  0
 14 15  1  0
 15 16  1  0
 14 17  1  0
 17 18  2  0
 18 19  1  0
 19 20  2  0
 20 21  1  0
 21 22  3  0
 20 23  1  0
 23 24  2  0
 24 25  1  0
  6  2  1  0
 16 11  1  0
 17 24  1  0
  1 26  1  0
  1 27  1  0
  1 28  1  0
  2 29  1  0
  4 30  1  0
  4 31  1  0
  5 32  1  0
  5 33  1  0
  7 34  1  0
  7 35  1  0
  7 36  1  0
  8 37  1  0
 11 38  1  0
 12 39  1  0
 12 40  1  0
 13 41  1  0
 13 42  1  0
 15 43  1  0
 15 44  1  0
 16 45  1  0
 16 46  1  0
 18 47  1  0
 19 48  1  0
 23 49  1  0
M  END
$$$$
