
     RDKit          3D

 47 50  0  0  0  0  0  0  0  0999 V2000
   -3.8072   -2.4862   -0.7863 C   0  0  0  0  0  0  0  0  0  0  0  0
   -2.7494   -1.7041   -0.2455 O   0  0  0  0  0  0  0  0  0  0  0  0
   -2.2965   -0.5293   -0.8521 C   0  0  0  0  0  0  0  0  0  0  0  0
   -2.8359   -0.1067   -1.9121 O   0  0  0  0  0  0  0  0  0  0  0  0
   -1.1768    0.2439   -0.2101 C   0  0  0  0  0  0  0  0  0  0  0  0
   -1.7086    1.3933    0.6542 C   0  0  0  0  0  0  0  0  0  0  0  0
   -2.2484    2.5033   -0.1949 C   0  0  0  0  0  0  0  0  0  0  0  0
   -3.3395    3.2683    0.2472 C   0  0  0  0  0  0  0  0  0  0  0  0
   -3.8177    4.3253   -0.5307 C   0  0  0  0  0  0  0  0  0  0  0  0
   -3.2015    4.6341   -1.7448 C   0  0  0  0  0  0  0  0  0  0  0  0
   -2.1049    3.8871   -2.1832 C   0  0  0  0  0  0  0  0  0  0  0  0
   -1.6243    2.8133   -1.4161 C   0  0  0  0  0  0  0  0  0  0  0  0
   -0.4130    2.0472   -1.8919 C   0  0  0  0  0  0  0  0  0  0  0  0
   -0.2322    0.7361   -1.2348 N   0  0  0  0  0  0  0  0  0  0  0  0
    0.8325   -0.1168   -1.7189 C   0  0  0  0  0  0  0  0  0  0  0  0
    1.5015    0.2294   -2.7314 O   0  0  0  0  0  0  0  0  0  0  0  0
    1.1351   -1.4443   -1.0699 C   0  0  0  0  0  0  0  0  0  0  0  0
    2.6102   -1.8643   -1.0699 C   0  0  0  0  0  0  0  0  0  0  0  0
    1.9504   -1.3987    0.2249 C   0  0  0  0  0  0  0  0  0  0  0  0
    2.4336   -0.0497    0.7820 C   0  0  0  0  0  0  0  0  0  0  0  0
    3.4532   -0.3108    1.8953 C   0  0  0  0  0  0  0  0  0  0  0  0
    2.9242   -1.1890    2.8743 O   0  0  0  0  0  0  0  0  0  0  0  0
    2.7452   -2.4840    2.3253 C   0  0  0  0  0  0  0  0  0  0  0  0
    1.6427   -2.4842    1.2612 C   0  0  0  0  0  0  0  0  0  0  0  0
   -3.5361   -2.8413   -1.8030 H   0  0  0  0  0  0  0  0  0  0  0  0
   -3.9810   -3.3654   -0.1327 H   0  0  0  0  0  0  0  0  0  0  0  0
   -4.7387   -1.8838   -0.8343 H   0  0  0  0  0  0  0  0  0  0  0  0
   -0.6557   -0.4384    0.4919 H   0  0  0  0  0  0  0  0  0  0  0  0
   -2.4891    1.0078    1.3476 H   0  0  0  0  0  0  0  0  0  0  0  0
   -0.8780    1.7986    1.2717 H   0  0  0  0  0  0  0  0  0  0  0  0
   -3.8187    3.0472    1.1930 H   0  0  0  0  0  0  0  0  0  0  0  0
   -4.6616    4.9100   -0.1885 H   0  0  0  0  0  0  0  0  0  0  0  0
   -3.5687    5.4578   -2.3432 H   0  0  0  0  0  0  0  0  0  0  0  0
   -1.6284    4.1463   -3.1205 H   0  0  0  0  0  0  0  0  0  0  0  0
   -0.5076    1.8891   -2.9887 H   0  0  0  0  0  0  0  0  0  0  0  0
    0.4881    2.6703   -1.7075 H   0  0  0  0  0  0  0  0  0  0  0  0
    0.4115   -2.2801   -1.1806 H   0  0  0  0  0  0  0  0  0  0  0  0
    2.7617   -2.9603   -1.1672 H   0  0  0  0  0  0  0  0  0  0  0  0
    3.3213   -1.1456   -1.5306 H   0  0  0  0  0  0  0  0  0  0  0  0
    2.8957    0.5904   -0.0006 H   0  0  0  0  0  0  0  0  0  0  0  0
    1.5657    0.4961    1.2087 H   0  0  0  0  0  0  0  0  0  0  0  0
    4.4047   -0.7042    1.4689 H   0  0  0  0  0  0  0  0  0  0  0  0
    3.6949    0.6556    2.3853 H   0  0  0  0  0  0  0  0  0  0  0  0
    3.6968   -2.8799    1.9020 H   0  0  0  0  0  0  0  0  0  0  0  0
    2.4458   -3.1729    3.1427 H   0  0  0  0  0  0  0  0  0  0  0  0
    0.6702   -2.2509    1.7449 H   0  0  0  0  0  0  0  0  0  0  0  0
    1.5662   -3.4933    0.8009 H   0  0  0  0  0  0  0  0  0  0  0  0
  1  2  1  0
  2  3  1  0
  3  4  2  0
  3  5  1  0
  5  6  1  0
  6  7  1  0
  7  8  2  0
  8  9  1  0
  9 10  2  0
 10 11  1  0
 11 12  2  0
 12 13  1  0
 13 14  1  0
 14 15  1  0
 15 16  2  0
 15 17  1  0
 17 18  1  0
 18 19  1  0
 19 20  1  0
 20 21  1  0
 21 22  1  0
 22 23  1  0
 23 24  1  0
 14  5  1  0
 12  7  1  0
 19 17  1  0
 24 19  1  0
  1 25  1  0
  1 26  1  0
  1 27  1  0
  5 28  1  0
  6 29  1  0
  6 30  1  0
  8 31  1  0
  9 32  1  0
 10 33  1  0
 11 34  1  0
 13 35  1  0
 13 36  1  0
 17 37  1  0
 18 38  1  0
 18 39  1  0
 20 40  1  0
 20 41  1  0
 21 42  1  0
 21 43  1  0
 23 44  1  0
 23 45  1  0
 24 46  1  0
 24 47  1  0
M  END
$$$$
