
     RDKit          3D

 42 45  0  0  0  0  0  0  0  0999 V2000
   -2.1962    1.6224   -2.7217 C   0  0  0  0  0  0  0  0  0  0  0  0
   -1.4201    0.8645   -1.6977 C   0  0  0  0  0  0  0  0  0  0  0  0
   -2.0676    0.3005   -0.6305 N   0  0  0  0  0  0  0  0  0  0  0  0
   -1.4132   -0.4416    0.3149 C   0  0  0  0  0  0  0  0  0  0  0  0
   -0.0281   -0.6015    0.1454 C   0  0  0  0  0  0  0  0  0  0  0  0
    0.9844   -1.2644    0.8218 C   0  0  0  0  0  0  0  0  0  0  0  0
    2.1470   -1.0809    0.1499 N   0  0  0  0  0  0  0  0  0  0  0  0
    1.9088   -0.3197   -0.9125 N   0  0  0  0  0  0  0  0  0  0  0  0
    2.9202    0.0644   -1.8627 C   0  0  0  0  0  0  0  0  0  0  0  0
    4.0225   -0.7788   -2.0884 C   0  0  0  0  0  0  0  0  0  0  0  0
    5.0172   -0.4165   -3.0017 C   0  0  0  0  0  0  0  0  0  0  0  0
    4.9275    0.7951   -3.6906 C   0  0  0  0  0  0  0  0  0  0  0  0
    3.8460    1.6490   -3.4628 C   0  0  0  0  0  0  0  0  0  0  0  0
    2.8480    1.2905   -2.5511 C   0  0  0  0  0  0  0  0  0  0  0  0
    0.5951   -0.0264   -0.9232 C   0  0  0  0  0  0  0  0  0  0  0  0
   -0.0772    0.6854   -1.8586 N   0  0  0  0  0  0  0  0  0  0  0  0
   -2.1642   -1.0094    1.4090 N   0  0  0  0  0  0  0  0  0  0  0  0
   -3.5644   -0.6787    1.6318 C   0  0  0  0  0  0  0  0  0  0  0  0
   -3.9651   -1.3955    2.9138 C   0  0  0  0  0  0  0  0  0  0  0  0
   -2.9195   -2.4987    3.0960 C   0  0  2  0  0  0  0  0  0  0  0  0
   -2.6538   -2.8575    4.5686 C   0  0  0  0  0  0  0  0  0  0  0  0
   -2.2172   -1.7399    5.2996 O   0  0  0  0  0  0  0  0  0  0  0  0
   -1.6791   -2.0106    2.3453 C   0  0  0  0  0  0  0  0  0  0  0  0
   -1.5581    2.4054   -3.1832 H   0  0  0  0  0  0  0  0  0  0  0  0
   -3.0751    2.1114   -2.2508 H   0  0  0  0  0  0  0  0  0  0  0  0
   -2.5459    0.9247   -3.5106 H   0  0  0  0  0  0  0  0  0  0  0  0
    0.9132   -1.8469    1.7260 H   0  0  0  0  0  0  0  0  0  0  0  0
    4.1052   -1.7233   -1.5658 H   0  0  0  0  0  0  0  0  0  0  0  0
    5.8582   -1.0755   -3.1749 H   0  0  0  0  0  0  0  0  0  0  0  0
    5.6993    1.0752   -4.3960 H   0  0  0  0  0  0  0  0  0  0  0  0
    3.7847    2.5939   -3.9871 H   0  0  0  0  0  0  0  0  0  0  0  0
    2.0404    1.9850   -2.3674 H   0  0  0  0  0  0  0  0  0  0  0  0
   -4.1745   -1.0445    0.7773 H   0  0  0  0  0  0  0  0  0  0  0  0
   -3.6907    0.4204    1.7427 H   0  0  0  0  0  0  0  0  0  0  0  0
   -3.9358   -0.6719    3.7577 H   0  0  0  0  0  0  0  0  0  0  0  0
   -4.9902   -1.8190    2.8365 H   0  0  0  0  0  0  0  0  0  0  0  0
   -3.2963   -3.4121    2.5815 H   0  0  0  0  0  0  0  0  0  0  0  0
   -1.9143   -3.6909    4.6218 H   0  0  0  0  0  0  0  0  0  0  0  0
   -3.5971   -3.2279    5.0233 H   0  0  0  0  0  0  0  0  0  0  0  0
   -1.2326   -1.8183    5.3966 H   0  0  0  0  0  0  0  0  0  0  0  0
   -1.2129   -2.8596    1.8000 H   0  0  0  0  0  0  0  0  0  0  0  0
   -0.9470   -1.5375    3.0323 H   0  0  0  0  0  0  0  0  0  0  0  0
  1  2  1  0
  2  3  2  0
  3  4  1  0
  4  5  2  0
  5  6  1  0
  6  7  2  0
  7  8  1  0
  8  9  1  0
  9 10  2  0
 10 11  1  0
 11 12  2  0
 12 13  1  0
 13 14  2  0
  8 15  1  0
 15 16  2  0
  4 17  1  0
 17 18  1  0
 18 19  1  0
 19 20  1  0
 20 21  1  0
 21 22  1  0
 20 23  1  0
  2 16  1  0
  5 15  1  0
  9 14  1  0
 23 17  1  0
  1 24  1  0
  1 25  1  0
  1 26  1  0
  6 27  1  0
 10 28  1  0
 11 29  1  0
 12 30  1  0
 13 31  1  0
 14 32  1  0
 18 33  1  0
 18 34  1  0
 19 35  1  0
 19 36  1  0
 20 37  1  6
 21 38  1  0
 21 39  1  0
 22 40  1  0
 23 41  1  0
 23 42  1  0
M  END
$$$$
