ligand_72_conformer_1_docked
     RDKit          3D

 30 32  0  0  0  0  0  0  0  0999 V2000
   10.7230   47.7210   56.1630 C   0  0  0  0  0  0  0  0  0  0  0  0
   10.6760   47.3860   54.7800 O   0  0  0  0  0  0  0  0  0  0  0  0
    9.4940   47.1600   54.0600 C   0  0  0  0  0  0  0  0  0  0  0  0
    8.3070   46.9700   54.7750 C   0  0  0  0  0  0  0  0  0  0  0  0
    7.1010   46.7530   54.1040 C   0  0  0  0  0  0  0  0  0  0  0  0
    7.0620   46.7110   52.7010 C   0  0  0  0  0  0  0  0  0  0  0  0
    5.7380   46.5230   51.9910 C   0  0  2  0  0  0  0  0  0  0  0  0
    4.7470   45.9110   52.8820 N   0  0  0  0  0  0  0  0  0  0  0  0
    3.4740   46.5210   53.1500 C   0  0  0  0  0  0  0  0  0  0  0  0
    3.2450   47.6960   52.7560 O   0  0  0  0  0  0  0  0  0  0  0  0
    2.4420   45.8050   53.9350 C   0  0  0  0  0  0  0  0  0  0  0  0
    2.3120   46.0980   55.3040 C   0  0  0  0  0  0  0  0  0  0  0  0
    1.3700   45.4290   56.0890 C   0  0  0  0  0  0  0  0  0  0  0  0
    0.5420   44.4640   55.5160 C   0  0  0  0  0  0  0  0  0  0  0  0
    0.6450   44.1730   54.1550 C   0  0  0  0  0  0  0  0  0  0  0  0
    1.5790   44.8440   53.3530 C   0  0  0  0  0  0  0  0  0  0  0  0
    1.5940   44.4820   51.5890 S   0  0  0  0  0  0  0  0  0  0  0  0
    1.9950   42.7170   51.8070 C   0  0  0  0  0  0  0  0  0  0  0  0
    3.4790   42.5440   51.6970 C   0  0  0  0  0  0  0  0  0  0  0  0
    4.2190   43.0680   52.5740 O   0  0  0  0  0  0  0  0  0  0  0  0
    4.0730   41.8770   50.5690 N   0  0  0  0  0  0  0  0  0  0  0  0
    5.4790   42.0040   50.2290 C   0  0  0  0  0  0  0  0  0  0  0  0
    5.6200   41.4000   48.8390 C   0  0  0  0  0  0  0  0  0  0  0  0
    4.3630   40.5640   48.6120 C   0  0  0  0  0  0  0  0  0  0  0  0
    3.3330   41.0750   49.6110 C   0  0  0  0  0  0  0  0  0  0  0  0
    5.9120   45.6830   50.7180 C   0  0  0  0  0  0  0  0  0  0  0  0
    4.6720   45.3450   50.2050 F   0  0  0  0  0  0  0  0  0  0  0  0
    6.6210   44.5240   50.9840 F   0  0  0  0  0  0  0  0  0  0  0  0
    8.2540   46.9100   51.9810 C   0  0  0  0  0  0  0  0  0  0  0  0
    9.4610   47.1250   52.6530 C   0  0  0  0  0  0  0  0  0  0  0  0
  1  2  1  0
  2  3  1  0
  3  4  2  0
  4  5  1  0
  5  6  2  0
  6  7  1  0
  7  8  1  1
  8  9  1  0
  9 10  2  0
  9 11  1  0
 11 12  2  0
 12 13  1  0
 13 14  2  0
 14 15  1  0
 15 16  2  0
 16 17  1  0
 17 18  1  0
 18 19  1  0
 19 20  2  0
 19 21  1  0
 21 22  1  0
 22 23  1  0
 23 24  1  0
 24 25  1  0
  7 26  1  0
 26 27  1  0
 26 28  1  0
  6 29  1  0
 29 30  2  0
 30  3  1  0
 16 11  1  0
 25 21  1  0
M  END
>  <meeko>  (1) 
{"is_sidechain": [false], "free_energy": -8.464, "intermolecular_energy": -12.422, "internal_energy": -1.785}

$$$$
