ligand_7_conformer_5_docked
     RDKit          3D

 27 29  0  0  0  0  0  0  0  0999 V2000
    5.0030   46.5360   51.8160 O   0  0  0  0  0  0  0  0  0  0  0  0
    5.8780   45.6400   51.9580 C   0  0  0  0  0  0  0  0  0  0  0  0
    6.8720   45.7550   52.9850 N   0  0  0  0  0  0  0  0  0  0  0  0
    7.0080   46.9470   53.8210 C   0  0  0  0  0  0  0  0  0  0  0  0
    8.0880   47.9060   53.2660 C   0  0  0  0  0  0  0  0  0  0  0  0
    9.2200   48.1540   54.2830 C   0  0  0  0  0  0  0  0  0  0  0  0
   10.1240   46.9100   54.4540 C   0  0  0  0  0  0  0  0  0  0  0  0
    9.9680   45.9470   53.4230 O   0  0  0  0  0  0  0  0  0  0  0  0
    9.9760   46.5740   52.1570 C   0  0  0  0  0  0  0  0  0  0  0  0
    8.6810   47.3770   51.9380 C   0  0  0  0  0  0  0  0  0  0  0  0
    5.8400   44.4520   51.0820 C   0  0  0  0  0  0  0  0  0  0  0  0
    6.7980   44.3340   50.0680 C   0  0  0  0  0  0  0  0  0  0  0  0
    6.7770   43.2720   49.2260 N   0  0  0  0  0  0  0  0  0  0  0  0
    5.8320   42.3020   49.3430 C   0  0  0  0  0  0  0  0  0  0  0  0
    5.8290   41.1690   48.4640 N   0  0  0  0  0  0  0  0  0  0  0  0
    5.0500   41.0840   47.2570 C   0  0  0  0  0  0  0  0  0  0  0  0
    5.4720   41.7050   46.0670 C   0  0  0  0  0  0  0  0  0  0  0  0
    4.6840   41.6290   44.9140 C   0  0  0  0  0  0  0  0  0  0  0  0
    3.4650   40.9480   44.9430 C   0  0  0  0  0  0  0  0  0  0  0  0
    3.0270   40.3480   46.1270 C   0  0  0  0  0  0  0  0  0  0  0  0
    3.8120   40.4230   47.2810 C   0  0  0  0  0  0  0  0  0  0  0  0
    4.9170   42.3740   50.3440 N   0  0  0  0  0  0  0  0  0  0  0  0
    4.8940   43.4100   51.2270 C   0  0  0  0  0  0  0  0  0  0  0  0
    3.8530   43.3880   52.3200 C   0  0  0  0  0  0  0  0  0  0  0  0
    3.3220   42.1150   52.4410 F   0  0  0  0  0  0  0  0  0  0  0  0
    2.8290   44.2600   52.0080 F   0  0  0  0  0  0  0  0  0  0  0  0
    4.4070   43.7390   53.5390 F   0  0  0  0  0  0  0  0  0  0  0  0
  1  2  2  0
  2  3  1  0
  3  4  1  0
  4  5  1  0
  5  6  1  0
  6  7  1  0
  7  8  1  0
  8  9  1  0
  9 10  1  0
  2 11  1  0
 11 12  2  0
 12 13  1  0
 13 14  2  0
 14 15  1  0
 15 16  1  0
 16 17  2  0
 17 18  1  0
 18 19  2  0
 19 20  1  0
 20 21  2  0
 14 22  1  0
 22 23  2  0
 23 24  1  0
 24 25  1  0
 24 26  1  0
 24 27  1  0
 10  5  1  0
 23 11  1  0
 21 16  1  0
M  END
>  <meeko>  (1) 
{"is_sidechain": [false], "free_energy": -9.082, "intermolecular_energy": -12.268, "internal_energy": -0.769}

$$$$
