ligand_6_conformer_5_docked
     RDKit          3D

 24 27  0  0  0  0  0  0  0  0999 V2000
    3.1500   46.7430   50.3260 O   0  0  0  0  0  0  0  0  0  0  0  0
    3.0740   45.9030   51.2630 C   0  0  0  0  0  0  0  0  0  0  0  0
    2.6310   44.5020   51.0850 C   0  0  0  0  0  0  0  0  0  0  0  0
    2.8730   43.8780   52.4790 C   0  0  1  0  0  0  0  0  0  0  0  0
    4.0770   43.0390   52.4490 N   0  0  0  0  0  0  0  0  0  0  0  0
    5.0300   43.0840   51.3790 C   0  0  0  0  0  0  0  0  0  0  0  0
    5.1490   42.0460   50.5070 N   0  0  0  0  0  0  0  0  0  0  0  0
    6.0590   42.0790   49.5000 C   0  0  0  0  0  0  0  0  0  0  0  0
    6.8870   43.1890   49.3460 C   0  0  0  0  0  0  0  0  0  0  0  0
    6.7510   44.2530   50.2400 C   0  0  0  0  0  0  0  0  0  0  0  0
    7.5920   45.3660   50.1120 O   0  0  0  0  0  0  0  0  0  0  0  0
    8.1930   46.0520   51.1780 C   0  0  0  0  0  0  0  0  0  0  0  0
    9.5410   45.8000   51.4610 C   0  0  0  0  0  0  0  0  0  0  0  0
   10.1830   46.4700   52.5090 C   0  0  0  0  0  0  0  0  0  0  0  0
    9.4820   47.4070   53.2720 C   0  0  0  0  0  0  0  0  0  0  0  0
    8.1430   47.6820   52.9840 C   0  0  0  0  0  0  0  0  0  0  0  0
    7.4990   47.0130   51.9380 C   0  0  0  0  0  0  0  0  0  0  0  0
    5.8320   44.1720   51.2410 N   0  0  0  0  0  0  0  0  0  0  0  0
    3.0270   45.0850   53.4500 C   0  0  1  0  0  0  0  0  0  0  0  0
    4.0670   44.9430   54.5770 C   0  0  0  0  0  0  0  0  0  0  0  0
    4.2400   46.2900   55.2970 C   0  0  0  0  0  0  0  0  0  0  0  0
    4.6660   47.3960   54.3150 C   0  0  0  0  0  0  0  0  0  0  0  0
    3.6730   47.5340   53.1520 C   0  0  0  0  0  0  0  0  0  0  0  0
    3.3770   46.2120   52.6080 N   0  0  0  0  0  0  0  0  0  0  0  0
  1  2  2  0
  2  3  1  0
  3  4  1  0
  4  5  1  6
  5  6  1  0
  6  7  2  0
  7  8  1  0
  8  9  2  0
  9 10  1  0
 10 11  1  0
 11 12  1  0
 12 13  2  0
 13 14  1  0
 14 15  2  0
 15 16  1  0
 16 17  2  0
 10 18  2  0
  4 19  1  0
 19 20  1  1
 20 21  1  0
 21 22  1  0
 22 23  1  0
 23 24  1  0
 24  2  1  0
 18  6  1  0
 24 19  1  0
 17 12  1  0
M  END
>  <meeko>  (1) 
{"is_sidechain": [false], "free_energy": -9.405, "intermolecular_energy": -11.604, "internal_energy": -0.7}

$$$$
