ligand_4_conformer_2_docked
     RDKit          3D

 23 26  0  0  0  0  0  0  0  0999 V2000
   10.3560   46.7360   52.7300 C   0  0  0  0  0  0  0  0  0  0  0  0
    9.5130   46.8280   51.6190 C   0  0  0  0  0  0  0  0  0  0  0  0
    8.1670   47.1660   51.7870 C   0  0  0  0  0  0  0  0  0  0  0  0
    7.6580   47.4340   53.0730 C   0  0  0  0  0  0  0  0  0  0  0  0
    6.3160   47.7820   53.2830 O   0  0  0  0  0  0  0  0  0  0  0  0
    5.3130   46.8880   53.6810 C   0  0  0  0  0  0  0  0  0  0  0  0
    4.3290   47.3110   54.5750 C   0  0  0  0  0  0  0  0  0  0  0  0
    3.3310   46.4090   54.9430 C   0  0  0  0  0  0  0  0  0  0  0  0
    3.3260   45.1530   54.4290 N   0  0  0  0  0  0  0  0  0  0  0  0
    4.2840   44.7540   53.5500 C   0  0  0  0  0  0  0  0  0  0  0  0
    4.2560   43.4220   53.0190 N   0  0  0  0  0  0  0  0  0  0  0  0
    3.9800   43.1510   51.6010 C   0  0  2  0  0  0  0  0  0  0  0  0
    3.7400   41.6370   51.3700 C   0  0  0  0  0  0  0  0  0  0  0  0
    4.0860   41.2350   49.9330 C   0  0  0  0  0  0  0  0  0  0  0  0
    5.5910   41.4330   49.6640 C   0  0  1  0  0  0  0  0  0  0  0  0
    5.8220   41.5200   48.2740 O   0  0  0  0  0  0  0  0  0  0  0  0
    6.6040   42.6690   48.0350 C   0  0  0  0  0  0  0  0  0  0  0  0
    7.1650   43.1790   49.3460 C   0  0  0  0  0  0  0  0  0  0  0  0
    6.1820   42.6680   50.3630 C   0  0  1  0  0  0  0  0  0  0  0  0
    5.1100   43.7250   50.7070 C   0  0  0  0  0  0  0  0  0  0  0  0
    5.2620   45.6240   53.1800 N   0  0  0  0  0  0  0  0  0  0  0  0
    8.5050   47.3140   54.1820 C   0  0  0  0  0  0  0  0  0  0  0  0
    9.8500   46.9730   54.0110 C   0  0  0  0  0  0  0  0  0  0  0  0
  1  2  2  0
  2  3  1  0
  3  4  2  0
  4  5  1  0
  5  6  1  0
  6  7  2  0
  7  8  1  0
  8  9  2  0
  9 10  1  0
 10 11  1  0
 12 11  1  1
 12 13  1  0
 13 14  1  0
 15 14  1  6
 15 16  1  0
 16 17  1  0
 17 18  1  0
 19 18  1  6
 19 20  1  0
 10 21  2  0
  4 22  1  0
 22 23  2  0
 23  1  1  0
 21  6  1  0
 20 12  1  0
 19 15  1  0
M  END
>  <meeko>  (1) 
{"is_sidechain": [false], "free_energy": -9.425, "intermolecular_energy": -11.629, "internal_energy": -0.496}

$$$$
