ligand_80_conformer_2_docked
     RDKit          3D

 23 25  0  0  0  0  0  0  0  0999 V2000
    9.5350   48.0980   55.3210 C   0  0  0  0  0  0  0  0  0  0  0  0
    9.0750   47.2620   54.2100 N   0  0  0  0  0  0  0  0  0  0  0  0
   10.0310   46.5190   53.3790 C   0  0  0  0  0  0  0  0  0  0  0  0
    9.6310   46.5930   51.9000 C   0  0  0  0  0  0  0  0  0  0  0  0
    8.1900   46.1840   51.7030 C   0  0  0  0  0  0  0  0  0  0  0  0
    7.7840   45.6080   50.4920 C   0  0  0  0  0  0  0  0  0  0  0  0
    6.4430   45.2890   50.2760 C   0  0  0  0  0  0  0  0  0  0  0  0
    5.4830   45.5390   51.2660 C   0  0  0  0  0  0  0  0  0  0  0  0
    4.1060   45.2190   51.0070 N   0  0  0  0  0  0  0  0  0  0  0  0
    3.4690   44.0010   51.4250 C   0  0  0  0  0  0  0  0  0  0  0  0
    4.1510   43.0450   51.8840 O   0  0  0  0  0  0  0  0  0  0  0  0
    1.9940   43.8240   51.2320 C   0  0  0  0  0  0  0  0  0  0  0  0
    1.2830   44.0860   52.4890 N   0  0  0  0  0  0  0  0  0  0  0  0
    0.8860   42.9570   53.3410 C   0  0  0  0  0  0  0  0  0  0  0  0
   -0.2860   43.3370   54.2500 C   0  0  0  0  0  0  0  0  0  0  0  0
    0.0710   44.5620   55.0940 C   0  0  0  0  0  0  0  0  0  0  0  0
    0.5010   45.6680   54.2410 N   0  0  0  0  0  0  0  0  0  0  0  0
    1.1700   45.4300   52.9990 C   0  0  0  0  0  0  0  0  0  0  0  0
    1.6370   46.4040   52.3500 O   0  0  0  0  0  0  0  0  0  0  0  0
    5.8790   46.1540   52.4670 C   0  0  0  0  0  0  0  0  0  0  0  0
    7.2280   46.4740   52.6910 C   0  0  0  0  0  0  0  0  0  0  0  0
    7.6670   47.1160   53.9500 C   0  0  0  0  0  0  0  0  0  0  0  0
    6.8190   47.5420   54.7800 O   0  0  0  0  0  0  0  0  0  0  0  0
  1  2  1  0
  2  3  1  0
  3  4  1  0
  4  5  1  0
  5  6  2  0
  6  7  1  0
  7  8  2  0
  8  9  1  0
  9 10  1  0
 10 11  2  0
 10 12  1  0
 12 13  1  0
 13 14  1  0
 14 15  1  0
 15 16  1  0
 16 17  1  0
 17 18  1  0
 18 19  2  0
  8 20  1  0
 20 21  2  0
 21 22  1  0
 22 23  2  0
 22  2  1  0
 21  5  1  0
 18 13  1  0
M  END
>  <meeko>  (1) 
{"is_sidechain": [false], "free_energy": -8.924, "intermolecular_energy": -10.489, "internal_energy": -0.565}

$$$$
