ligand_77_conformer_3_docked
     RDKit          3D

 24 27  0  0  0  0  0  0  0  0999 V2000
    4.3380   45.9370   50.5090 O   0  0  0  0  0  0  0  0  0  0  0  0
    4.6840   45.0310   51.3170 C   0  0  0  0  0  0  0  0  0  0  0  0
    6.0550   44.6050   51.3710 N   0  0  0  0  0  0  0  0  0  0  0  0
    7.1210   45.3340   50.6770 C   0  0  1  0  0  0  0  0  0  0  0  0
    7.8630   46.2210   51.6510 C   0  0  0  0  0  0  0  0  0  0  0  0
    9.2450   46.0720   51.8410 C   0  0  0  0  0  0  0  0  0  0  0  0
    9.9180   46.8820   52.7570 C   0  0  0  0  0  0  0  0  0  0  0  0
    9.2010   47.8340   53.4830 C   0  0  0  0  0  0  0  0  0  0  0  0
    7.8600   47.9620   53.3010 N   0  0  0  0  0  0  0  0  0  0  0  0
    7.1820   47.1860   52.4140 C   0  0  0  0  0  0  0  0  0  0  0  0
    8.1110   44.3420   50.0390 C   0  0  0  0  0  0  0  0  0  0  0  0
    7.4850   43.0890   49.4460 C   0  0  0  0  0  0  0  0  0  0  0  0
    8.0070   44.1850   48.5290 C   0  0  0  0  0  0  0  0  0  0  0  0
    3.6620   44.4250   52.1880 C   0  0  0  0  0  0  0  0  0  0  0  0
    2.7820   45.0890   53.0250 C   0  0  0  0  0  0  0  0  0  0  0  0
    2.0220   44.0810   53.5950 C   0  0  0  0  0  0  0  0  0  0  0  0
    0.9150   44.2520   54.5700 C   0  0  0  0  0  0  0  0  0  0  0  0
   -0.3660   43.7270   54.3040 C   0  0  0  0  0  0  0  0  0  0  0  0
   -1.4080   43.8990   55.2220 C   0  0  0  0  0  0  0  0  0  0  0  0
   -1.1860   44.5920   56.4140 C   0  0  0  0  0  0  0  0  0  0  0  0
    0.0790   45.1120   56.6920 C   0  0  0  0  0  0  0  0  0  0  0  0
    1.1240   44.9440   55.7790 C   0  0  0  0  0  0  0  0  0  0  0  0
    2.4460   42.8960   53.1050 N   0  0  0  0  0  0  0  0  0  0  0  0
    3.4350   43.0990   52.2510 N   0  0  0  0  0  0  0  0  0  0  0  0
  1  2  2  0
  2  3  1  0
  4  3  1  1
  4  5  1  0
  5  6  2  0
  6  7  1  0
  7  8  2  0
  8  9  1  0
  9 10  2  0
  4 11  1  0
 11 12  1  0
 12 13  1  0
  2 14  1  0
 14 15  1  0
 15 16  2  0
 16 17  1  0
 17 18  2  0
 18 19  1  0
 19 20  2  0
 20 21  1  0
 21 22  2  0
 16 23  1  0
 23 24  1  0
 10  5  1  0
 13 11  1  0
 24 14  2  0
 22 17  1  0
M  END
>  <meeko>  (1) 
{"is_sidechain": [false], "free_energy": -8.642, "intermolecular_energy": -11.168, "internal_energy": -0.792}

$$$$
