ligand_85_conformer_3_docked
     RDKit          3D

 23 26  0  0  0  0  0  0  0  0999 V2000
   11.2680   47.5640   56.4550 C   0  0  0  0  0  0  0  0  0  0  0  0
   10.0240   47.9370   55.6510 C   0  0  0  0  0  0  0  0  0  0  0  0
    9.9470   47.1780   54.3200 C   0  0  0  0  0  0  0  0  0  0  0  0
    8.5590   46.9020   53.9510 N   0  0  0  0  0  0  0  0  0  0  0  0
    7.5250   47.1310   54.7540 N   0  0  0  0  0  0  0  0  0  0  0  0
    6.3980   46.8060   54.0750 C   0  0  0  0  0  0  0  0  0  0  0  0
    5.0740   46.9220   54.6060 N   0  0  0  0  0  0  0  0  0  0  0  0
    4.4270   45.7920   55.2680 C   0  0  0  0  0  0  0  0  0  0  0  0
    3.5100   45.0840   54.3230 C   0  0  0  0  0  0  0  0  0  0  0  0
    3.9160   44.1600   53.4310 N   0  0  0  0  0  0  0  0  0  0  0  0
    2.7510   43.8570   52.8220 C   0  0  0  0  0  0  0  0  0  0  0  0
    2.6390   42.9010   51.6800 C   0  0  0  0  0  0  0  0  0  0  0  0
    3.9050   42.0410   51.5990 C   0  0  0  0  0  0  0  0  0  0  0  0
    4.8760   42.4020   50.4860 C   0  0  0  0  0  0  0  0  0  0  0  0
    4.0050   41.1610   50.3640 C   0  0  0  0  0  0  0  0  0  0  0  0
    1.7130   44.5700   53.3020 N   0  0  0  0  0  0  0  0  0  0  0  0
    2.2250   45.3150   54.2320 O   0  0  0  0  0  0  0  0  0  0  0  0
    6.7340   46.3670   52.8120 C   0  0  0  0  0  0  0  0  0  0  0  0
    5.9790   45.9280   51.7270 C   0  0  0  0  0  0  0  0  0  0  0  0
    6.6730   45.5580   50.5590 C   0  0  0  0  0  0  0  0  0  0  0  0
    8.0840   45.6360   50.5080 C   0  0  0  0  0  0  0  0  0  0  0  0
    8.8170   46.0840   51.6240 C   0  0  0  0  0  0  0  0  0  0  0  0
    8.1000   46.4430   52.7670 C   0  0  0  0  0  0  0  0  0  0  0  0
  1  2  1  0
  2  3  1  0
  3  4  1  0
  4  5  1  0
  5  6  2  0
  6  7  1  0
  7  8  1  0
  8  9  1  0
  9 10  2  0
 10 11  1  0
 11 12  1  0
 12 13  1  0
 13 14  1  0
 14 15  1  0
 11 16  2  0
 16 17  1  0
  6 18  1  0
 18 19  2  0
 19 20  1  0
 20 21  2  0
 21 22  1  0
 22 23  2  0
 23  4  1  0
 17  9  1  0
 23 18  1  0
 15 13  1  0
M  END
>  <meeko>  (1) 
{"is_sidechain": [false], "free_energy": -8.387, "intermolecular_energy": -11.819, "internal_energy": -0.891}

$$$$
