ligand_14_conformer_4_docked
     RDKit          3D

 27 30  0  0  0  0  0  0  0  0999 V2000
    8.7320   48.2960   54.6590 C   0  0  0  0  0  0  0  0  0  0  0  0
    8.8270   47.3920   53.4660 C   0  0  0  0  0  0  0  0  0  0  0  0
   10.0780   46.9480   53.0170 C   0  0  0  0  0  0  0  0  0  0  0  0
   10.1700   46.0700   51.9360 C   0  0  0  0  0  0  0  0  0  0  0  0
   11.3910   45.6500   51.5160 F   0  0  0  0  0  0  0  0  0  0  0  0
    9.0110   45.6170   51.2960 C   0  0  0  0  0  0  0  0  0  0  0  0
    9.1120   44.7490   50.2540 N   0  0  0  0  0  0  0  0  0  0  0  0
    8.0210   44.2700   49.6050 C   0  0  0  0  0  0  0  0  0  0  0  0
    8.1880   43.3830   48.5460 O   0  0  0  0  0  0  0  0  0  0  0  0
    6.7420   44.6730   50.0010 C   0  0  0  0  0  0  0  0  0  0  0  0
    6.5880   45.5660   51.0700 C   0  0  0  0  0  0  0  0  0  0  0  0
    5.2200   45.9930   51.4360 C   0  0  0  0  0  0  0  0  0  0  0  0
    4.4010   46.2770   50.5210 O   0  0  0  0  0  0  0  0  0  0  0  0
    4.8060   46.0560   52.8100 N   0  0  0  0  0  0  0  0  0  0  0  0
    4.3980   47.2950   53.4500 C   0  0  0  0  0  0  0  0  0  0  0  0
    3.9910   46.9290   54.8750 C   0  0  0  0  0  0  0  0  0  0  0  0
    4.4140   45.4670   55.0800 C   0  0  1  0  0  0  0  0  0  0  0  0
    3.3610   44.6550   55.7130 N   0  0  0  0  0  0  0  0  0  0  0  0
    1.9370   44.7160   55.4650 C   0  0  0  0  0  0  0  0  0  0  0  0
    1.1100   45.3250   56.4250 C   0  0  0  0  0  0  0  0  0  0  0  0
   -0.2730   45.4000   56.2340 C   0  0  0  0  0  0  0  0  0  0  0  0
   -0.8490   44.8670   55.0800 C   0  0  0  0  0  0  0  0  0  0  0  0
   -0.0430   44.2610   54.1150 C   0  0  0  0  0  0  0  0  0  0  0  0
    1.3400   44.1860   54.3000 C   0  0  0  0  0  0  0  0  0  0  0  0
    4.8460   44.9200   53.7170 C   0  0  0  0  0  0  0  0  0  0  0  0
    7.7370   46.0520   51.7380 C   0  0  0  0  0  0  0  0  0  0  0  0
    7.6600   46.9290   52.8390 C   0  0  0  0  0  0  0  0  0  0  0  0
  1  2  1  0
  2  3  2  0
  3  4  1  0
  4  5  1  0
  4  6  2  0
  6  7  1  0
  7  8  2  0
  8  9  1  0
  8 10  1  0
 10 11  2  0
 11 12  1  0
 12 13  2  0
 12 14  1  0
 14 15  1  0
 15 16  1  0
 16 17  1  0
 17 18  1  6
 18 19  1  0
 19 20  2  0
 20 21  1  0
 21 22  2  0
 22 23  1  0
 23 24  2  0
 17 25  1  0
 11 26  1  0
 26 27  2  0
 27  2  1  0
 26  6  1  0
 25 14  1  0
 24 19  1  0
M  END
>  <meeko>  (1) 
{"is_sidechain": [false], "free_energy": -10.139, "intermolecular_energy": -12.806, "internal_energy": -0.319}

$$$$
