ligand_63_conformer_2_docked
     RDKit          3D

 30 31  0  0  0  0  0  0  0  0999 V2000
   -3.2370   42.9460   57.5480 C   0  0  0  0  0  0  0  0  0  0  0  0
   -2.9340   43.7280   56.3980 O   0  0  0  0  0  0  0  0  0  0  0  0
   -1.6390   44.1060   56.0140 C   0  0  0  0  0  0  0  0  0  0  0  0
   -0.8220   44.9270   56.8150 C   0  0  0  0  0  0  0  0  0  0  0  0
    0.4750   45.2750   56.3890 C   0  0  0  0  0  0  0  0  0  0  0  0
    1.3280   46.0830   57.1570 O   0  0  0  0  0  0  0  0  0  0  0  0
    0.9300   46.7950   58.3230 C   0  0  0  0  0  0  0  0  0  0  0  0
    0.9420   44.8020   55.1590 C   0  0  0  0  0  0  0  0  0  0  0  0
    0.1380   43.9820   54.3590 C   0  0  0  0  0  0  0  0  0  0  0  0
    0.7530   43.3180   52.8470 S   0  0  0  0  0  0  0  0  0  0  0  0
   -0.1630   42.2160   52.3960 O   0  0  0  0  0  0  0  0  0  0  0  0
    0.8090   44.3760   51.7810 O   0  0  0  0  0  0  0  0  0  0  0  0
    2.3490   42.6780   53.0950 N   0  0  0  0  0  0  0  0  0  0  0  0
    3.5280   43.2450   52.4930 C   0  0  0  0  0  0  0  0  0  0  0  0
    4.2650   44.2440   53.1520 C   0  0  0  0  0  0  0  0  0  0  0  0
    5.4280   44.7710   52.5820 C   0  0  0  0  0  0  0  0  0  0  0  0
    6.3410   45.9970   53.4550 S   0  0  0  0  0  0  0  0  0  0  0  0
    5.8620   47.3400   52.9810 O   0  0  0  0  0  0  0  0  0  0  0  0
    6.0680   45.9070   54.9310 O   0  0  0  0  0  0  0  0  0  0  0  0
    8.0610   45.8920   53.1550 N   0  0  0  0  0  0  0  0  0  0  0  0
    8.8210   47.1650   53.0660 C   0  0  0  0  0  0  0  0  0  0  0  0
   10.2270   46.8090   52.5460 C   0  0  0  0  0  0  0  0  0  0  0  0
    8.1850   48.1540   52.0660 C   0  0  0  0  0  0  0  0  0  0  0  0
    8.9790   47.8430   54.4470 C   0  0  0  0  0  0  0  0  0  0  0  0
    5.8530   44.3160   51.3300 C   0  0  0  0  0  0  0  0  0  0  0  0
    5.1170   43.3430   50.6510 C   0  0  0  0  0  0  0  0  0  0  0  0
    3.9510   42.7970   51.2240 C   0  0  0  0  0  0  0  0  0  0  0  0
    3.2020   41.8060   50.5680 O   0  0  0  0  0  0  0  0  0  0  0  0
    3.7410   40.8550   49.6560 C   0  0  0  0  0  0  0  0  0  0  0  0
   -1.1490   43.6410   54.7890 C   0  0  0  0  0  0  0  0  0  0  0  0
  1  2  1  0
  2  3  1  0
  3  4  2  0
  4  5  1  0
  5  6  1  0
  6  7  1  0
  5  8  2  0
  8  9  1  0
  9 10  1  0
 10 11  2  0
 10 12  2  0
 10 13  1  0
 13 14  1  0
 14 15  2  0
 15 16  1  0
 16 17  1  0
 17 18  2  0
 17 19  2  0
 17 20  1  0
 20 21  1  0
 21 22  1  0
 21 23  1  0
 21 24  1  0
 16 25  2  0
 25 26  1  0
 26 27  2  0
 27 28  1  0
 28 29  1  0
  9 30  2  0
 30  3  1  0
 27 14  1  0
M  END
>  <meeko>  (1) 
{"is_sidechain": [false], "free_energy": -8.478, "intermolecular_energy": -12.938, "internal_energy": -0.298}

$$$$
