ligand_68_conformer_5_docked
     RDKit          3D

 26 28  0  0  0  0  0  0  0  0999 V2000
   10.9840   47.7650   56.0970 C   0  0  0  0  0  0  0  0  0  0  0  0
    9.8590   47.6370   55.1220 C   0  0  0  0  0  0  0  0  0  0  0  0
    8.8620   48.4010   55.2240 O   0  0  0  0  0  0  0  0  0  0  0  0
    9.9660   46.7130   54.0270 N   0  0  0  0  0  0  0  0  0  0  0  0
    8.8790   46.3750   53.1490 C   0  0  0  0  0  0  0  0  0  0  0  0
    7.6180   46.0040   53.6490 C   0  0  0  0  0  0  0  0  0  0  0  0
    6.5860   45.6550   52.7740 C   0  0  0  0  0  0  0  0  0  0  0  0
    6.7990   45.6620   51.3870 C   0  0  0  0  0  0  0  0  0  0  0  0
    5.6910   45.2530   50.4550 C   0  0  0  0  0  0  0  0  0  0  0  0
    4.5650   44.7190   51.2170 N   0  0  0  0  0  0  0  0  0  0  0  0
    3.2820   45.3630   51.2430 C   0  0  0  0  0  0  0  0  0  0  0  0
    3.1360   46.4980   50.7110 O   0  0  0  0  0  0  0  0  0  0  0  0
    2.0940   44.7010   51.8930 C   0  0  0  0  0  0  0  0  0  0  0  0
    0.9460   45.7050   52.1040 C   0  0  0  0  0  0  0  0  0  0  0  0
   -0.2540   45.0160   52.7590 C   0  0  0  0  0  0  0  0  0  0  0  0
    0.1650   44.3200   53.9860 N   0  0  0  0  0  0  0  0  0  0  0  0
   -0.7170   44.2560   55.1220 C   0  0  0  0  0  0  0  0  0  0  0  0
   -0.4000   44.9070   56.3250 C   0  0  0  0  0  0  0  0  0  0  0  0
   -1.2510   44.8150   57.3810 N   0  0  0  0  0  0  0  0  0  0  0  0
   -2.4040   44.1020   57.2990 C   0  0  0  0  0  0  0  0  0  0  0  0
   -2.7170   43.4420   56.1100 C   0  0  0  0  0  0  0  0  0  0  0  0
   -1.8680   43.5320   55.0530 N   0  0  0  0  0  0  0  0  0  0  0  0
    1.2840   43.3730   53.8860 C   0  0  0  0  0  0  0  0  0  0  0  0
    2.4930   44.0450   53.2270 C   0  0  0  0  0  0  0  0  0  0  0  0
    8.0640   46.0030   50.8880 C   0  0  0  0  0  0  0  0  0  0  0  0
    9.0960   46.3510   51.7630 C   0  0  0  0  0  0  0  0  0  0  0  0
  1  2  1  0
  2  3  2  0
  2  4  1  0
  4  5  1  0
  5  6  2  0
  6  7  1  0
  7  8  2  0
  8  9  1  0
  9 10  1  0
 10 11  1  0
 11 12  2  0
 11 13  1  0
 13 14  1  0
 14 15  1  0
 15 16  1  0
 16 17  1  0
 17 18  2  0
 18 19  1  0
 19 20  2  0
 20 21  1  0
 21 22  2  0
 16 23  1  0
 23 24  1  0
  8 25  1  0
 25 26  2  0
 26  5  1  0
 24 13  1  0
 22 17  1  0
M  END
>  <meeko>  (1) 
{"is_sidechain": [false], "free_energy": -8.883, "intermolecular_energy": -11.48, "internal_energy": -0.499}

$$$$
