ligand_42_conformer_1_docked
     RDKit          3D

 23 25  0  0  0  0  0  0  0  0999 V2000
    0.4580   44.9510   55.3650 C   0  0  0  0  0  0  0  0  0  0  0  0
    1.3000   44.0320   54.6920 O   0  0  0  0  0  0  0  0  0  0  0  0
    1.5380   44.4030   53.3380 C   0  0  1  0  0  0  0  0  0  0  0  0
    2.3880   45.6670   53.2220 C   0  0  0  0  0  0  0  0  0  0  0  0
    1.9990   46.7790   52.5590 N   0  0  0  0  0  0  0  0  0  0  0  0
    3.0100   47.6360   52.5930 N   0  0  0  0  0  0  0  0  0  0  0  0
    4.0040   47.0310   53.2670 C   0  0  0  0  0  0  0  0  0  0  0  0
    3.6480   45.8090   53.6860 N   0  0  0  0  0  0  0  0  0  0  0  0
    4.5510   44.8490   54.3160 C   0  0  0  0  0  0  0  0  0  0  0  0
    5.6720   45.5990   55.0440 C   0  0  0  0  0  0  0  0  0  0  0  0
    6.2470   46.6490   54.1810 N   0  0  0  0  0  0  0  0  0  0  0  0
    7.6620   46.9190   54.2070 C   0  0  0  0  0  0  0  0  0  0  0  0
    8.1280   47.7700   55.0140 O   0  0  0  0  0  0  0  0  0  0  0  0
    8.5140   46.2270   53.3290 O   0  0  0  0  0  0  0  0  0  0  0  0
    8.7770   46.5610   51.9580 C   0  0  0  0  0  0  0  0  0  0  0  0
   10.2490   46.2170   51.6830 C   0  0  0  0  0  0  0  0  0  0  0  0
    8.5640   48.0670   51.7130 C   0  0  0  0  0  0  0  0  0  0  0  0
    7.8880   45.7260   51.0160 C   0  0  0  0  0  0  0  0  0  0  0  0
    5.3600   47.6170   53.5060 C   0  0  0  0  0  0  0  0  0  0  0  0
    2.2390   43.2670   52.6280 C   0  0  0  0  0  0  0  0  0  0  0  0
    1.7150   43.3510   51.2050 C   0  0  0  0  0  0  0  0  0  0  0  0
    0.5310   44.1140   51.1840 O   0  0  0  0  0  0  0  0  0  0  0  0
    0.2460   44.4780   52.5140 C   0  0  0  0  0  0  0  0  0  0  0  0
  1  2  1  0
  3  2  1  1
  3  4  1  0
  4  5  2  0
  5  6  1  0
  6  7  2  0
  7  8  1  0
  8  9  1  0
  9 10  1  0
 10 11  1  0
 11 12  1  0
 12 13  2  0
 12 14  1  0
 14 15  1  0
 15 16  1  0
 15 17  1  0
 15 18  1  0
 11 19  1  0
  3 20  1  0
 20 21  1  0
 21 22  1  0
 22 23  1  0
 23  3  1  0
  8  4  1  0
 19  7  1  0
M  END
>  <meeko>  (1) 
{"is_sidechain": [false], "free_energy": -8.135, "intermolecular_energy": -10.513, "internal_energy": -0.5}

$$$$
