ligand_8_conformer_1_docked
     RDKit          3D

 25 28  0  0  0  0  0  0  0  0999 V2000
    3.9780   41.1490   50.8520 O   0  0  0  0  0  0  0  0  0  0  0  0
    3.9850   42.4090   50.9010 C   0  0  0  0  0  0  0  0  0  0  0  0
    2.7720   43.1150   51.2050 N   0  0  0  0  0  0  0  0  0  0  0  0
    1.5780   42.4250   51.7110 C   0  0  1  0  0  0  0  0  0  0  0  0
    1.6140   42.3380   53.2360 C   0  0  0  0  0  0  0  0  0  0  0  0
    0.9050   43.5950   53.7480 C   0  0  1  0  0  0  0  0  0  0  0  0
    1.8610   44.7400   54.0840 C   0  0  0  0  0  0  0  0  0  0  0  0
    1.2650   45.9710   53.5750 N   0  0  0  0  0  0  0  0  0  0  0  0
    0.4850   45.5720   52.4060 C   0  0  0  0  0  0  0  0  0  0  0  0
    0.0450   44.1180   52.6120 C   0  0  1  0  0  0  0  0  0  0  0  0
    0.3040   43.2110   51.4000 C   0  0  0  0  0  0  0  0  0  0  0  0
    5.2460   43.1400   50.6320 C   0  0  0  0  0  0  0  0  0  0  0  0
    5.4440   44.4250   51.1640 C   0  0  0  0  0  0  0  0  0  0  0  0
    6.6300   45.1220   50.9150 C   0  0  0  0  0  0  0  0  0  0  0  0
    7.6370   44.5560   50.1270 C   0  0  0  0  0  0  0  0  0  0  0  0
    8.8100   45.3000   49.9180 O   0  0  0  0  0  0  0  0  0  0  0  0
    9.9340   45.3440   50.7980 C   0  0  0  0  0  0  0  0  0  0  0  0
    9.8340   46.5320   51.7730 C   0  0  0  0  0  0  0  0  0  0  0  0
    8.5320   47.3180   51.5240 C   0  0  0  0  0  0  0  0  0  0  0  0
    8.4000   48.4930   52.5010 C   0  0  0  0  0  0  0  0  0  0  0  0
    8.4690   48.0100   53.9550 C   0  0  0  0  0  0  0  0  0  0  0  0
    9.7620   47.2270   54.2120 C   0  0  0  0  0  0  0  0  0  0  0  0
    9.8980   46.0510   53.2380 C   0  0  0  0  0  0  0  0  0  0  0  0
    7.4340   43.2780   49.5710 C   0  0  0  0  0  0  0  0  0  0  0  0
    6.2510   42.5790   49.8220 C   0  0  0  0  0  0  0  0  0  0  0  0
  1  2  2  0
  2  3  1  0
  4  3  1  1
  4  5  1  0
  6  5  1  6
  6  7  1  0
  7  8  1  0
  8  9  1  0
 10  9  1  6
 10 11  1  0
  2 12  1  0
 12 13  2  0
 13 14  1  0
 14 15  2  0
 15 16  1  0
 16 17  1  0
 17 18  1  0
 18 19  1  0
 19 20  1  0
 20 21  1  0
 21 22  1  0
 22 23  1  0
 15 24  1  0
 24 25  2  0
 11  4  1  0
 25 12  1  0
 10  6  1  0
 23 18  1  0
M  END
>  <meeko>  (1) 
{"is_sidechain": [false], "free_energy": -9.032, "intermolecular_energy": -11.672, "internal_energy": -0.13}

$$$$
