ligand_98_conformer_2_docked
     RDKit          3D

 25 27  0  0  0  0  0  0  0  0999 V2000
   10.3530   45.9760   51.6960 C   0  0  0  0  0  0  0  0  0  0  0  0
    9.2720   46.0860   52.7820 C   0  0  1  0  0  0  0  0  0  0  0  0
    9.9140   46.2910   54.0230 O   0  0  0  0  0  0  0  0  0  0  0  0
    9.5470   47.5670   54.4790 C   0  0  0  0  0  0  0  0  0  0  0  0
    8.1820   47.8820   53.9240 C   0  0  0  0  0  0  0  0  0  0  0  0
    8.1870   47.1890   52.5670 C   0  0  1  0  0  0  0  0  0  0  0  0
    8.5190   48.2290   51.4680 C   0  0  0  0  0  0  0  0  0  0  0  0
    6.8590   46.5960   52.2960 N   0  0  0  0  0  0  0  0  0  0  0  0
    6.5500   45.7860   51.1490 C   0  0  0  0  0  0  0  0  0  0  0  0
    7.4270   45.5500   50.2770 O   0  0  0  0  0  0  0  0  0  0  0  0
    5.1850   45.1540   51.0130 C   0  0  0  0  0  0  0  0  0  0  0  0
    5.0240   43.9400   51.9650 C   0  0  0  0  0  0  0  0  0  0  0  0
    4.2810   44.3000   53.2570 C   0  0  0  0  0  0  0  0  0  0  0  0
    2.9720   44.9040   52.9590 N   0  0  0  0  0  0  0  0  0  0  0  0
    1.9130   44.8500   53.9410 C   0  0  0  0  0  0  0  0  0  0  0  0
    0.6930   44.2210   53.6290 C   0  0  0  0  0  0  0  0  0  0  0  0
   -0.3330   44.1500   54.5750 C   0  0  0  0  0  0  0  0  0  0  0  0
   -0.1590   44.7100   55.8440 C   0  0  0  0  0  0  0  0  0  0  0  0
   -1.2170   44.6360   56.8180 C   0  0  0  0  0  0  0  0  0  0  0  0
   -2.0670   44.5750   57.6000 N   0  0  0  0  0  0  0  0  0  0  0  0
    1.0450   45.3450   56.1640 C   0  0  0  0  0  0  0  0  0  0  0  0
    2.0770   45.4180   55.2210 C   0  0  0  0  0  0  0  0  0  0  0  0
    3.2160   46.0740   55.5530 F   0  0  0  0  0  0  0  0  0  0  0  0
    2.7730   45.6210   51.6880 C   0  0  0  0  0  0  0  0  0  0  0  0
    4.0900   46.2290   51.2050 C   0  0  0  0  0  0  0  0  0  0  0  0
  2  1  1  6
  2  3  1  0
  3  4  1  0
  4  5  1  0
  5  6  1  0
  6  7  1  6
  6  8  1  0
  8  9  1  0
  9 10  2  0
  9 11  1  0
 11 12  1  0
 12 13  1  0
 13 14  1  0
 14 15  1  0
 15 16  2  0
 16 17  1  0
 17 18  2  0
 18 19  1  0
 19 20  3  0
 18 21  1  0
 21 22  2  0
 22 23  1  0
 14 24  1  0
 24 25  1  0
  6  2  1  0
 25 11  1  0
 22 15  1  0
M  END
>  <meeko>  (1) 
{"is_sidechain": [false], "free_energy": -9.575, "intermolecular_energy": -11.255, "internal_energy": -0.252}

$$$$
