ligand_91_conformer_4_docked
     RDKit          3D

 24 26  0  0  0  0  0  0  0  0999 V2000
    4.8440   48.2530   54.5290 O   0  0  0  0  0  0  0  0  0  0  0  0
    5.4000   47.1240   54.4280 C   0  0  0  0  0  0  0  0  0  0  0  0
    4.7930   45.9770   55.0490 N   0  0  0  0  0  0  0  0  0  0  0  0
    3.4880   46.0410   55.7060 C   0  0  0  0  0  0  0  0  0  0  0  0
    2.4450   45.2670   54.8960 C   0  0  0  0  0  0  0  0  0  0  0  0
    2.8360   45.2160   53.4510 C   0  0  0  0  0  0  0  0  0  0  0  0
    2.4510   46.1800   52.5250 C   0  0  0  0  0  0  0  0  0  0  0  0
    3.1490   45.7780   51.0510 S   0  0  0  0  0  0  0  0  0  0  0  0
    3.9200   44.4030   51.6490 C   0  0  0  0  0  0  0  0  0  0  0  0
    4.7830   43.4840   50.8710 C   0  0  0  0  0  0  0  0  0  0  0  0
    4.4620   42.1160   50.7860 C   0  0  0  0  0  0  0  0  0  0  0  0
    5.2710   41.2420   50.0540 C   0  0  0  0  0  0  0  0  0  0  0  0
    6.4070   41.7220   49.3980 C   0  0  0  0  0  0  0  0  0  0  0  0
    6.7360   43.0770   49.4750 C   0  0  0  0  0  0  0  0  0  0  0  0
    5.9310   43.9550   50.2060 C   0  0  0  0  0  0  0  0  0  0  0  0
    3.6550   44.2420   52.9660 N   0  0  0  0  0  0  0  0  0  0  0  0
    6.6760   47.0090   53.6830 C   0  0  0  0  0  0  0  0  0  0  0  0
    6.6940   46.7910   52.2930 C   0  0  0  0  0  0  0  0  0  0  0  0
    7.9070   46.6910   51.6060 C   0  0  0  0  0  0  0  0  0  0  0  0
    9.1160   46.8130   52.2960 C   0  0  0  0  0  0  0  0  0  0  0  0
   10.2910   46.7170   51.6250 F   0  0  0  0  0  0  0  0  0  0  0  0
    9.1130   47.0420   53.6750 C   0  0  0  0  0  0  0  0  0  0  0  0
   10.2840   47.1650   54.3460 F   0  0  0  0  0  0  0  0  0  0  0  0
    7.9010   47.1440   54.3650 C   0  0  0  0  0  0  0  0  0  0  0  0
  1  2  2  0
  2  3  1  0
  3  4  1  0
  4  5  1  0
  5  6  1  0
  6  7  2  0
  7  8  1  0
  8  9  1  0
  9 10  1  0
 10 11  2  0
 11 12  1  0
 12 13  2  0
 13 14  1  0
 14 15  2  0
  9 16  2  0
  2 17  1  0
 17 18  2  0
 18 19  1  0
 19 20  2  0
 20 21  1  0
 20 22  1  0
 22 23  1  0
 22 24  2  0
 16  6  1  0
 24 17  1  0
 15 10  1  0
M  END
>  <meeko>  (1) 
{"is_sidechain": [false], "free_energy": -9.64, "intermolecular_energy": -12.458, "internal_energy": -1.293}

$$$$
