ligand_56_conformer_3_docked
     RDKit          3D

 26 29  0  0  0  0  0  0  0  0999 V2000
    5.9060   47.5860   54.6290 O   0  0  0  0  0  0  0  0  0  0  0  0
    5.5550   47.2420   53.4670 C   0  0  0  0  0  0  0  0  0  0  0  0
    6.3790   47.5850   52.3400 N   0  0  0  0  0  0  0  0  0  0  0  0
    7.6470   48.2980   52.4780 C   0  0  0  0  0  0  0  0  0  0  0  0
    8.7790   47.5220   51.7790 C   0  0  2  0  0  0  0  0  0  0  0  0
    8.2770   46.2710   51.2110 N   0  0  0  0  0  0  0  0  0  0  0  0
    9.4090   45.3420   51.1700 C   0  0  0  0  0  0  0  0  0  0  0  0
   10.5910   46.0000   51.8720 C   0  0  0  0  0  0  0  0  0  0  0  0
    9.9840   47.1580   52.6650 C   0  0  2  0  0  0  0  0  0  0  0  0
    9.5870   46.8670   54.1480 C   0  0  0  0  0  0  0  0  0  0  0  0
    9.3730   48.0980   55.0210 C   0  0  0  0  0  0  0  0  0  0  0  0
   10.5400   47.1620   55.3030 C   0  0  0  0  0  0  0  0  0  0  0  0
    4.2880   46.5000   53.2700 C   0  0  0  0  0  0  0  0  0  0  0  0
    3.2360   47.1120   52.5710 C   0  0  0  0  0  0  0  0  0  0  0  0
    2.0220   46.4500   52.3830 C   0  0  0  0  0  0  0  0  0  0  0  0
    1.8270   45.1510   52.8870 C   0  0  0  0  0  0  0  0  0  0  0  0
    0.5660   44.4680   52.6950 N   0  0  0  0  0  0  0  0  0  0  0  0
   -0.7250   45.1400   52.5670 C   0  0  0  0  0  0  0  0  0  0  0  0
   -1.8450   44.0770   52.5430 C   0  0  0  0  0  0  0  0  0  0  0  0
   -1.2990   42.7520   52.0030 C   0  0  0  0  0  0  0  0  0  0  0  0
    0.4120   42.7810   52.4080 S   0  0  0  0  0  0  0  0  0  0  0  0
    0.7010   41.9850   53.6500 O   0  0  0  0  0  0  0  0  0  0  0  0
    1.2620   42.3330   51.2520 O   0  0  0  0  0  0  0  0  0  0  0  0
    2.8810   44.5380   53.5870 C   0  0  0  0  0  0  0  0  0  0  0  0
    4.1020   45.1960   53.7790 C   0  0  0  0  0  0  0  0  0  0  0  0
    5.3860   44.3250   54.6130 Cl  0  0  0  0  0  0  0  0  0  0  0  0
  1  2  2  0
  2  3  1  0
  3  4  1  0
  5  4  1  1
  5  6  1  0
  6  7  1  0
  7  8  1  0
  8  9  1  0
  9 10  1  1
 10 11  1  0
 11 12  1  0
  2 13  1  0
 13 14  2  0
 14 15  1  0
 15 16  2  0
 16 17  1  0
 17 18  1  0
 18 19  1  0
 19 20  1  0
 20 21  1  0
 21 22  2  0
 21 23  2  0
 16 24  1  0
 24 25  2  0
 25 26  1  0
  9  5  1  0
 12 10  1  0
 25 13  1  0
 21 17  1  0
M  END
>  <meeko>  (1) 
{"is_sidechain": [false], "free_energy": -8.703, "intermolecular_energy": -11.247, "internal_energy": -0.46}

$$$$
