ligand_32_conformer_4_docked
     RDKit          3D

 22 25  0  0  0  0  0  0  0  0999 V2000
    5.5850   44.1740   51.8030 O   0  0  0  0  0  0  0  0  0  0  0  0
    5.6070   45.3970   51.5010 C   0  0  0  0  0  0  0  0  0  0  0  0
    4.7660   46.3310   52.1970 N   0  0  0  0  0  0  0  0  0  0  0  0
    3.6300   45.9610   52.9980 C   0  0  0  0  0  0  0  0  0  0  0  0
    3.8150   45.6170   54.3420 C   0  0  0  0  0  0  0  0  0  0  0  0
    2.7230   45.2770   55.1430 C   0  0  0  0  0  0  0  0  0  0  0  0
    1.4300   45.2980   54.5940 C   0  0  0  0  0  0  0  0  0  0  0  0
    0.2660   44.9590   55.3730 N   0  0  0  0  0  0  0  0  0  0  0  0
   -0.0140   45.3210   56.6430 C   0  0  0  0  0  0  0  0  0  0  0  0
   -1.2290   44.7750   56.9940 C   0  0  0  0  0  0  0  0  0  0  0  0
   -1.6390   44.0800   55.8750 C   0  0  0  0  0  0  0  0  0  0  0  0
   -0.7160   44.2060   54.9040 N   0  0  0  0  0  0  0  0  0  0  0  0
    1.2710   45.6610   53.2910 N   0  0  0  0  0  0  0  0  0  0  0  0
    2.3200   45.9910   52.4920 C   0  0  0  0  0  0  0  0  0  0  0  0
    6.6310   45.8880   50.5190 C   0  0  2  0  0  0  0  0  0  0  0  0
    7.8560   44.9920   50.3360 C   0  0  0  0  0  0  0  0  0  0  0  0
    8.0080   46.3480   51.0160 C   0  0  2  0  0  0  0  0  0  0  0  0
    8.4260   46.3630   52.5160 C   0  0  0  0  0  0  0  0  0  0  0  0
    8.0240   47.5420   53.4120 C   0  0  0  0  0  0  0  0  0  0  0  0
    9.0670   47.5620   54.5140 C   0  0  0  0  0  0  0  0  0  0  0  0
   10.3510   47.0680   53.8650 C   0  0  0  0  0  0  0  0  0  0  0  0
    9.9330   46.1660   52.7060 C   0  0  0  0  0  0  0  0  0  0  0  0
  1  2  2  0
  2  3  1  0
  3  4  1  0
  4  5  2  0
  5  6  1  0
  6  7  2  0
  7  8  1  0
  8  9  1  0
  9 10  2  0
 10 11  1  0
 11 12  2  0
  7 13  1  0
 13 14  2  0
 15  2  1  1
 15 16  1  0
 16 17  1  0
 17 18  1  1
 18 19  1  0
 19 20  1  0
 20 21  1  0
 21 22  1  0
 14  4  1  0
 17 15  1  0
 22 18  1  0
 12  8  1  0
M  END
>  <meeko>  (1) 
{"is_sidechain": [false], "free_energy": -8.184, "intermolecular_energy": -10.098, "internal_energy": -0.72}

$$$$
