ligand_47_conformer_2_docked
     RDKit          3D

 26 29  0  0  0  0  0  0  0  0999 V2000
    8.1420   43.5670   48.7490 C   0  0  0  0  0  0  0  0  0  0  0  0
    6.9770   43.6190   49.6280 N   0  0  0  0  0  0  0  0  0  0  0  0
    6.0260   42.6670   49.8080 C   0  0  0  0  0  0  0  0  0  0  0  0
    5.9970   41.5840   49.1640 O   0  0  0  0  0  0  0  0  0  0  0  0
    5.1250   42.9930   50.7680 N   0  0  0  0  0  0  0  0  0  0  0  0
    4.0340   42.1710   51.2850 C   0  0  0  0  0  0  0  0  0  0  0  0
    5.5570   44.1830   51.2350 C   0  0  0  0  0  0  0  0  0  0  0  0
    5.0430   44.9470   52.2800 C   0  0  0  0  0  0  0  0  0  0  0  0
    5.7100   46.1440   52.6210 C   0  0  0  0  0  0  0  0  0  0  0  0
    5.1080   47.1070   53.9770 S   0  0  0  0  0  0  0  0  0  0  0  0
    6.2280   47.3200   54.9560 O   0  0  0  0  0  0  0  0  0  0  0  0
    4.6210   48.4500   53.5070 O   0  0  0  0  0  0  0  0  0  0  0  0
    3.8040   46.2740   54.7620 N   0  0  0  0  0  0  0  0  0  0  0  0
    2.7600   45.5940   54.0450 C   0  0  0  0  0  0  0  0  0  0  0  0
    2.0060   46.3060   53.0820 C   0  0  0  0  0  0  0  0  0  0  0  0
    0.9660   45.6760   52.3790 C   0  0  0  0  0  0  0  0  0  0  0  0
    0.7000   44.3350   52.6450 C   0  0  0  0  0  0  0  0  0  0  0  0
    1.4310   43.6390   53.5630 C   0  0  0  0  0  0  0  0  0  0  0  0
    2.4720   44.2300   54.2760 C   0  0  0  0  0  0  0  0  0  0  0  0
    0.9950   42.3010   53.6710 N   0  0  0  0  0  0  0  0  0  0  0  0
   -0.1200   42.0980   52.7480 C   0  0  0  0  0  0  0  0  0  0  0  0
   -0.3400   43.4590   52.0380 C   0  0  0  0  0  0  0  0  0  0  0  0
    6.8760   46.5360   51.8990 C   0  0  0  0  0  0  0  0  0  0  0  0
    7.8400   48.1430   52.3080 Br  0  0  0  0  0  0  0  0  0  0  0  0
    7.3670   45.7320   50.8520 C   0  0  0  0  0  0  0  0  0  0  0  0
    6.6770   44.5610   50.5460 C   0  0  0  0  0  0  0  0  0  0  0  0
  1  2  1  0
  2  3  1  0
  3  4  2  0
  3  5  1  0
  5  6  1  0
  5  7  1  0
  7  8  2  0
  8  9  1  0
  9 10  1  0
 10 11  2  0
 10 12  2  0
 10 13  1  0
 13 14  1  0
 14 15  2  0
 15 16  1  0
 16 17  2  0
 17 18  1  0
 18 19  2  0
 18 20  1  0
 20 21  1  0
 21 22  1  0
  9 23  2  0
 23 24  1  0
 23 25  1  0
 25 26  2  0
 26  2  1  0
 26  7  1  0
 19 14  1  0
 22 17  1  0
M  END
>  <meeko>  (1) 
{"is_sidechain": [false], "free_energy": -9.393, "intermolecular_energy": -11.04, "internal_energy": 0.118}

$$$$
