ligand_82_conformer_5_docked
     RDKit          3D

 23 25  0  0  0  0  0  0  0  0999 V2000
    6.1560   42.1450   48.6470 C   0  0  0  0  0  0  0  0  0  0  0  0
    6.6730   43.3230   49.4220 C   0  0  0  0  0  0  0  0  0  0  0  0
    8.0270   43.6870   49.3390 C   0  0  0  0  0  0  0  0  0  0  0  0
    8.5020   44.7980   50.0440 C   0  0  0  0  0  0  0  0  0  0  0  0
    7.6260   45.5650   50.8210 C   0  0  0  0  0  0  0  0  0  0  0  0
    8.2390   46.9920   51.7250 S   0  0  0  0  0  0  0  0  0  0  0  0
    8.2990   46.1380   53.3390 C   0  0  0  0  0  0  0  0  0  0  0  0
    7.3640   46.7810   54.3240 C   0  0  0  0  0  0  0  0  0  0  0  0
    7.7470   47.8000   54.9600 O   0  0  0  0  0  0  0  0  0  0  0  0
    6.0410   46.2640   54.5460 N   0  0  0  0  0  0  0  0  0  0  0  0
    4.9160   47.2010   54.6460 C   0  0  0  0  0  0  0  0  0  0  0  0
    3.5930   46.4640   54.8920 C   0  0  0  0  0  0  0  0  0  0  0  0
    3.3420   45.3070   53.8760 C   0  0  0  0  0  0  0  0  0  0  0  0
    4.6580   44.4730   53.6450 C   0  0  0  0  0  0  0  0  0  0  0  0
    5.7820   44.8220   54.6210 C   0  0  0  0  0  0  0  0  0  0  0  0
    2.2000   44.4250   54.4870 C   0  0  0  0  0  0  0  0  0  0  0  0
    1.4960   43.5130   53.4710 C   0  0  2  0  0  0  0  0  0  0  0  0
    2.2970   42.4000   53.1730 O   0  0  0  0  0  0  0  0  0  0  0  0
    1.1750   44.3010   52.2020 C   0  0  0  0  0  0  0  0  0  0  0  0
    2.4310   45.0070   51.7000 C   0  0  0  0  0  0  0  0  0  0  0  0
    2.9230   45.9280   52.6600 O   0  0  0  0  0  0  0  0  0  0  0  0
    6.2720   45.2120   50.8970 C   0  0  0  0  0  0  0  0  0  0  0  0
    5.7940   44.1030   50.1900 C   0  0  0  0  0  0  0  0  0  0  0  0
  1  2  1  0
  2  3  2  0
  3  4  1  0
  4  5  2  0
  5  6  1  0
  6  7  1  0
  7  8  1  0
  8  9  2  0
  8 10  1  0
 10 11  1  0
 11 12  1  0
 12 13  1  0
 13 14  1  0
 14 15  1  0
 13 16  1  0
 16 17  1  0
 17 18  1  6
 17 19  1  0
 19 20  1  0
 20 21  1  0
  5 22  1  0
 22 23  2  0
 23  2  1  0
 15 10  1  0
 21 13  1  0
M  END
>  <meeko>  (1) 
{"is_sidechain": [false], "free_energy": -9.079, "intermolecular_energy": -10.936, "internal_energy": -0.608}

$$$$
