ligand_12_conformer_1_docked
     RDKit          3D

 27 30  0  0  0  0  0  0  0  0999 V2000
   -2.9660   43.4720   56.7460 C   0  0  0  0  0  0  0  0  0  0  0  0
   -2.3610   44.1870   55.6750 O   0  0  0  0  0  0  0  0  0  0  0  0
   -1.0160   44.5650   55.6820 C   0  0  0  0  0  0  0  0  0  0  0  0
   -0.4390   45.0390   56.8810 C   0  0  0  0  0  0  0  0  0  0  0  0
    0.9110   45.4230   56.9050 C   0  0  0  0  0  0  0  0  0  0  0  0
    1.6480   45.3220   55.7280 C   0  0  0  0  0  0  0  0  0  0  0  0
    2.9570   45.6530   55.5950 N   0  0  0  0  0  0  0  0  0  0  0  0
    3.3750   45.4370   54.3210 C   0  0  0  0  0  0  0  0  0  0  0  0
    4.7110   45.6880   53.8650 N   0  0  0  0  0  0  0  0  0  0  0  0
    5.3950   46.9440   54.0440 C   0  0  0  0  0  0  0  0  0  0  0  0
    4.7740   47.9260   54.5350 O   0  0  0  0  0  0  0  0  0  0  0  0
    6.7810   47.1020   53.6570 N   0  0  0  0  0  0  0  0  0  0  0  0
    7.8310   46.9350   54.6770 C   0  0  0  0  0  0  0  0  0  0  0  0
    9.2040   47.3860   54.1910 C   0  0  0  0  0  0  0  0  0  0  0  0
    9.4930   46.7520   52.8410 C   0  0  0  0  0  0  0  0  0  0  0  0
    8.5210   47.2990   51.7870 C   0  0  1  0  0  0  0  0  0  0  0  0
    8.5560   46.4810   50.5640 N   0  0  0  0  0  0  0  0  0  0  0  0
    7.7640   45.3050   50.2840 C   0  0  0  0  0  0  0  0  0  0  0  0
    6.4390   45.1530   50.7450 C   0  0  0  0  0  0  0  0  0  0  0  0
    5.7100   43.9990   50.4410 C   0  0  0  0  0  0  0  0  0  0  0  0
    6.2880   42.9850   49.6750 C   0  0  0  0  0  0  0  0  0  0  0  0
    7.5970   43.1230   49.2100 C   0  0  0  0  0  0  0  0  0  0  0  0
    8.3300   44.2760   49.5110 C   0  0  0  0  0  0  0  0  0  0  0  0
    7.0650   47.5480   52.2770 C   0  0  0  0  0  0  0  0  0  0  0  0
    2.1460   44.8290   53.3190 S   0  0  0  0  0  0  0  0  0  0  0  0
    1.0440   44.8520   54.5800 C   0  0  0  0  0  0  0  0  0  0  0  0
   -0.2590   44.4790   54.5450 N   0  0  0  0  0  0  0  0  0  0  0  0
  1  2  1  0
  2  3  1  0
  3  4  2  0
  4  5  1  0
  5  6  2  0
  6  7  1  0
  7  8  2  0
  8  9  1  0
  9 10  1  0
 10 11  2  0
 10 12  1  0
 12 13  1  0
 13 14  1  0
 14 15  1  0
 15 16  1  0
 16 17  1  6
 17 18  1  0
 18 19  2  0
 19 20  1  0
 20 21  2  0
 21 22  1  0
 22 23  2  0
 16 24  1  0
  8 25  1  0
 25 26  1  0
 26 27  2  0
 27  3  1  0
 26  6  1  0
 24 12  1  0
 23 18  1  0
M  END
>  <meeko>  (1) 
{"is_sidechain": [false], "free_energy": -9.307, "intermolecular_energy": -12.027, "internal_energy": -0.027}

$$$$
