ligand_1_conformer_3_docked
     RDKit          3D

 30 34  0  0  0  0  0  0  0  0999 V2000
    3.3750   41.1030   50.4560 O   0  0  0  0  0  0  0  0  0  0  0  0
    3.3610   42.2690   50.9360 C   0  0  0  0  0  0  0  0  0  0  0  0
    4.5790   43.0960   50.8410 C   0  0  0  0  0  0  0  0  0  0  0  0
    4.6980   44.2890   51.5970 C   0  0  0  0  0  0  0  0  0  0  0  0
    5.8660   45.0710   51.5310 C   0  0  0  0  0  0  0  0  0  0  0  0
    6.8990   44.6310   50.7020 C   0  0  0  0  0  0  0  0  0  0  0  0
    6.7880   43.4750   49.9760 C   0  0  0  0  0  0  0  0  0  0  0  0
    5.6500   42.6730   50.0260 C   0  0  0  0  0  0  0  0  0  0  0  0
    7.9030   43.2790   49.2550 N   0  0  0  0  0  0  0  0  0  0  0  0
    8.6800   44.3410   49.5660 C   0  0  0  0  0  0  0  0  0  0  0  0
    9.8240   44.5190   49.0670 O   0  0  0  0  0  0  0  0  0  0  0  0
    8.1050   45.1950   50.4580 N   0  0  0  0  0  0  0  0  0  0  0  0
    8.6580   46.4430   51.0130 C   0  0  0  0  0  0  0  0  0  0  0  0
    9.9030   46.1790   51.8760 C   0  0  0  0  0  0  0  0  0  0  0  0
    9.5390   46.5830   53.3030 C   0  0  0  0  0  0  0  0  0  0  0  0
    8.4030   47.5830   53.1640 C   0  0  0  0  0  0  0  0  0  0  0  0
    7.6400   47.1710   51.9080 C   0  0  0  0  0  0  0  0  0  0  0  0
    2.1650   42.7630   51.5620 N   0  0  0  0  0  0  0  0  0  0  0  0
    0.9670   43.1520   50.8360 C   0  0  0  0  0  0  0  0  0  0  0  0
   -0.1460   43.1870   51.8760 C   0  0  0  0  0  0  0  0  0  0  0  0
    0.5560   43.2840   53.2330 C   0  0  2  0  0  0  0  0  0  0  0  0
    0.6400   44.6560   53.6230 O   0  0  0  0  0  0  0  0  0  0  0  0
    1.8210   45.3350   53.9680 C   0  0  0  0  0  0  0  0  0  0  0  0
    2.5600   45.0300   55.1290 C   0  0  0  0  0  0  0  0  0  0  0  0
    3.7390   45.7210   55.4130 C   0  0  0  0  0  0  0  0  0  0  0  0
    4.1890   46.7240   54.5510 C   0  0  0  0  0  0  0  0  0  0  0  0
    3.4530   47.0440   53.4070 C   0  0  0  0  0  0  0  0  0  0  0  0
    3.8880   48.0220   52.5730 F   0  0  0  0  0  0  0  0  0  0  0  0
    2.2770   46.3510   53.1170 C   0  0  0  0  0  0  0  0  0  0  0  0
    1.9500   42.6990   52.9960 C   0  0  0  0  0  0  0  0  0  0  0  0
  1  2  2  0
  2  3  1  0
  3  4  2  0
  4  5  1  0
  5  6  2  0
  6  7  1  0
  7  8  2  0
  7  9  1  0
  9 10  1  0
 10 11  2  0
 10 12  1  0
 12 13  1  0
 13 14  1  0
 14 15  1  0
 15 16  1  0
 16 17  1  0
  2 18  1  0
 18 19  1  0
 19 20  1  0
 20 21  1  0
 21 22  1  6
 22 23  1  0
 23 24  2  0
 24 25  1  0
 25 26  2  0
 26 27  1  0
 27 28  1  0
 27 29  2  0
 21 30  1  0
  8  3  1  0
 17 13  1  0
 30 18  1  0
 12  6  1  0
 29 23  1  0
M  END
>  <meeko>  (1) 
{"is_sidechain": [false], "free_energy": -10.043, "intermolecular_energy": -12.979, "internal_energy": -0.795}

$$$$
