ligand_2_conformer_1_docked
     RDKit          3D

 32 35  0  0  0  0  0  0  0  0999 V2000
   -1.6470   44.5000   57.1270 C   0  0  0  0  0  0  0  0  0  0  0  0
   -0.2750   44.9360   56.7120 C   0  0  0  0  0  0  0  0  0  0  0  0
    0.5240   44.2760   55.8000 C   0  0  0  0  0  0  0  0  0  0  0  0
    1.6530   45.0660   55.7200 C   0  0  0  0  0  0  0  0  0  0  0  0
    2.7690   44.8130   54.8570 N   0  0  0  0  0  0  0  0  0  0  0  0
    2.6350   44.3430   53.5070 C   0  0  0  0  0  0  0  0  0  0  0  0
    1.4980   44.2890   52.9600 O   0  0  0  0  0  0  0  0  0  0  0  0
    3.8060   43.9600   52.7710 N   0  0  0  0  0  0  0  0  0  0  0  0
    3.7520   43.5870   51.3500 C   0  0  0  0  0  0  0  0  0  0  0  0
    4.9910   42.7620   50.9500 C   0  0  0  0  0  0  0  0  0  0  0  0
    6.1550   43.6290   50.4350 C   0  0  0  0  0  0  0  0  0  0  0  0
    6.1080   44.9820   51.0350 N   0  0  0  0  0  0  0  0  0  0  0  0
    7.3540   45.7630   50.7740 C   0  0  2  0  0  0  0  0  0  0  0  0
    8.4310   44.9250   50.0540 C   0  0  0  0  0  0  0  0  0  0  0  0
    7.9580   46.2730   52.0740 C   0  0  0  0  0  0  0  0  0  0  0  0
    7.1540   46.4380   53.2140 C   0  0  0  0  0  0  0  0  0  0  0  0
    7.7090   46.9250   54.4030 C   0  0  0  0  0  0  0  0  0  0  0  0
    9.0680   47.2540   54.4620 C   0  0  0  0  0  0  0  0  0  0  0  0
    9.8750   47.0930   53.3340 C   0  0  0  0  0  0  0  0  0  0  0  0
    9.3240   46.6070   52.1440 C   0  0  0  0  0  0  0  0  0  0  0  0
    4.9130   45.7110   50.5250 C   0  0  0  0  0  0  0  0  0  0  0  0
    3.6400   44.8360   50.4660 C   0  0  0  0  0  0  0  0  0  0  0  0
    1.5430   46.1360   56.5300 N   0  0  0  0  0  0  0  0  0  0  0  0
    0.3740   46.0460   57.1430 N   0  0  0  0  0  0  0  0  0  0  0  0
   -0.0960   47.0240   58.0840 C   0  0  0  0  0  0  0  0  0  0  0  0
   -1.3060   47.7080   57.8630 C   0  0  0  0  0  0  0  0  0  0  0  0
   -1.7610   48.6500   58.7900 C   0  0  0  0  0  0  0  0  0  0  0  0
   -1.0170   48.9160   59.9450 C   0  0  0  0  0  0  0  0  0  0  0  0
   -1.4590   49.8340   60.8390 F   0  0  0  0  0  0  0  0  0  0  0  0
    0.1770   48.2290   60.1810 C   0  0  0  0  0  0  0  0  0  0  0  0
    0.6350   47.2800   59.2600 C   0  0  0  0  0  0  0  0  0  0  0  0
    1.8010   46.6310   59.5000 F   0  0  0  0  0  0  0  0  0  0  0  0
  1  2  1  0
  2  3  2  0
  3  4  1  0
  4  5  1  0
  5  6  1  0
  6  7  2  0
  6  8  1  0
  8  9  1  0
  9 10  1  0
 10 11  1  0
 11 12  1  0
 12 13  1  0
 13 14  1  1
 13 15  1  0
 15 16  2  0
 16 17  1  0
 17 18  2  0
 18 19  1  0
 19 20  2  0
 12 21  1  0
 21 22  1  0
  4 23  2  0
 23 24  1  0
 24 25  1  0
 25 26  2  0
 26 27  1  0
 27 28  2  0
 28 29  1  0
 28 30  1  0
 30 31  2  0
 31 32  1  0
 24  2  1  0
 31 25  1  0
 22  9  1  0
 20 15  1  0
M  END
>  <meeko>  (1) 
{"is_sidechain": [false], "free_energy": -9.634, "intermolecular_energy": -12.45, "internal_energy": -0.618}

$$$$
