ligand_13_conformer_2_docked
     RDKit          3D

 26 28  0  0  0  0  0  0  0  0999 V2000
    5.0920   47.8520   54.2550 O   0  0  0  0  0  0  0  0  0  0  0  0
    4.7880   46.8590   53.5390 C   0  0  0  0  0  0  0  0  0  0  0  0
    5.7330   46.3630   52.5750 N   0  0  0  0  0  0  0  0  0  0  0  0
    7.1500   46.5990   52.6510 C   0  0  0  0  0  0  0  0  0  0  0  0
    7.8570   46.9210   51.4830 C   0  0  0  0  0  0  0  0  0  0  0  0
    9.2360   47.1360   51.5290 C   0  0  0  0  0  0  0  0  0  0  0  0
    9.9230   47.0190   52.7390 C   0  0  0  0  0  0  0  0  0  0  0  0
    9.2430   46.6780   53.9130 C   0  0  0  0  0  0  0  0  0  0  0  0
    9.9850   46.5580   55.0990 O   0  0  0  0  0  0  0  0  0  0  0  0
   10.7010   47.6220   55.7200 C   0  0  0  0  0  0  0  0  0  0  0  0
    9.8070   48.6010   56.1090 F   0  0  0  0  0  0  0  0  0  0  0  0
   11.3690   47.1550   56.8370 F   0  0  0  0  0  0  0  0  0  0  0  0
    7.8510   46.4600   53.8630 C   0  0  0  0  0  0  0  0  0  0  0  0
    3.4420   46.2520   53.6660 C   0  0  0  0  0  0  0  0  0  0  0  0
    2.4880   46.3870   52.6420 C   0  0  0  0  0  0  0  0  0  0  0  0
    1.2220   45.8060   52.7690 C   0  0  0  0  0  0  0  0  0  0  0  0
    0.8830   45.0860   53.9260 C   0  0  0  0  0  0  0  0  0  0  0  0
   -0.4030   44.4590   54.0690 N   0  0  0  0  0  0  0  0  0  0  0  0
   -1.1870   44.4890   55.2710 C   0  0  0  0  0  0  0  0  0  0  0  0
   -1.8540   43.3810   55.6970 N   0  0  0  0  0  0  0  0  0  0  0  0
   -2.6200   43.4110   56.8180 C   0  0  0  0  0  0  0  0  0  0  0  0
   -2.7410   44.5950   57.5450 C   0  0  0  0  0  0  0  0  0  0  0  0
   -2.0650   45.7250   57.0900 C   0  0  0  0  0  0  0  0  0  0  0  0
   -1.3080   45.6540   55.9640 N   0  0  0  0  0  0  0  0  0  0  0  0
    1.8440   44.9210   54.9330 C   0  0  0  0  0  0  0  0  0  0  0  0
    3.1090   45.5020   54.8080 C   0  0  0  0  0  0  0  0  0  0  0  0
  1  2  2  0
  2  3  1  0
  3  4  1  0
  4  5  2  0
  5  6  1  0
  6  7  2  0
  7  8  1  0
  8  9  1  0
  9 10  1  0
 10 11  1  0
 10 12  1  0
  8 13  2  0
  2 14  1  0
 14 15  2  0
 15 16  1  0
 16 17  2  0
 17 18  1  0
 18 19  1  0
 19 20  2  0
 20 21  1  0
 21 22  2  0
 22 23  1  0
 23 24  2  0
 17 25  1  0
 25 26  2  0
 13  4  1  0
 26 14  1  0
 24 19  1  0
M  END
>  <meeko>  (1) 
{"is_sidechain": [false], "free_energy": -8.48, "intermolecular_energy": -11.454, "internal_energy": -0.489}

$$$$
