ligand_57_conformer_5_docked
     RDKit          3D

 24 28  0  0  0  0  0  0  0  0999 V2000
    2.7570   47.8600   52.3570 O   0  0  0  0  0  0  0  0  0  0  0  0
    2.3130   46.5500   52.5740 C   0  0  0  0  0  0  0  0  0  0  0  0
    2.9480   45.5900   51.5630 C   0  0  0  0  0  0  0  0  0  0  0  0
    4.3510   45.1140   51.9960 C   0  0  2  0  0  0  0  0  0  0  0  0
    5.4920   46.0680   51.5250 C   0  0  0  0  0  0  0  0  0  0  0  0
    6.4120   45.2440   50.7450 N   0  0  0  0  0  0  0  0  0  0  0  0
    7.6600   45.7300   50.1590 C   0  0  0  0  0  0  0  0  0  0  0  0
    8.6880   46.0250   51.2520 C   0  0  2  0  0  0  0  0  0  0  0  0
    8.9460   47.4740   51.6380 C   0  0  0  0  0  0  0  0  0  0  0  0
    9.4360   46.7370   52.8690 C   0  0  2  0  0  0  0  0  0  0  0  0
    9.5930   47.4620   54.1670 C   0  0  0  0  0  0  0  0  0  0  0  0
   10.4650   47.1100   55.1310 N   0  0  0  0  0  0  0  0  0  0  0  0
   10.2320   47.9560   56.1220 N   0  0  0  0  0  0  0  0  0  0  0  0
    9.2540   48.7730   55.7730 N   0  0  0  0  0  0  0  0  0  0  0  0
    8.8190   48.4920   54.5560 N   0  0  0  0  0  0  0  0  0  0  0  0
   10.6010   45.9760   52.2610 C   0  0  0  0  0  0  0  0  0  0  0  0
    9.9850   45.4800   51.0770 O   0  0  0  0  0  0  0  0  0  0  0  0
    8.3410   45.7030   52.6990 C   0  0  0  0  0  0  0  0  0  0  0  0
    5.8900   43.9300   50.6530 C   0  0  0  0  0  0  0  0  0  0  0  0
    6.4440   42.8440   49.9670 C   0  0  0  0  0  0  0  0  0  0  0  0
    5.7830   41.6080   50.0260 C   0  0  0  0  0  0  0  0  0  0  0  0
    4.5930   41.4770   50.7660 C   0  0  0  0  0  0  0  0  0  0  0  0
    4.0530   42.5850   51.4400 C   0  0  0  0  0  0  0  0  0  0  0  0
    4.7160   43.8120   51.3500 C   0  0  0  0  0  0  0  0  0  0  0  0
  1  2  1  0
  2  3  1  0
  4  3  1  6
  4  5  1  0
  5  6  1  0
  6  7  1  0
  8  7  1  6
  8  9  1  0
  9 10  1  0
 10 11  1  1
 11 12  1  0
 12 13  2  0
 13 14  1  0
 14 15  1  0
 10 16  1  0
 16 17  1  0
 10 18  1  0
  6 19  1  0
 19 20  2  0
 20 21  1  0
 21 22  2  0
 22 23  1  0
 23 24  2  0
 24  4  1  0
 17  8  1  0
 24 19  1  0
 18  8  1  0
 15 11  2  0
M  END
>  <meeko>  (1) 
{"is_sidechain": [false], "free_energy": -9.651, "intermolecular_energy": -12.754, "internal_energy": -0.081}

$$$$
