ligand_87_conformer_4_docked
     RDKit          3D

 26 30  0  0  0  0  0  0  0  0999 V2000
   -0.4240   45.1660   56.7460 C   0  0  0  0  0  0  0  0  0  0  0  0
    0.8950   45.0800   56.2920 C   0  0  0  0  0  0  0  0  0  0  0  0
    1.1790   44.4530   55.0760 C   0  0  0  0  0  0  0  0  0  0  0  0
    0.1440   43.8860   54.3110 C   0  0  0  0  0  0  0  0  0  0  0  0
   -1.1900   44.0160   54.7550 C   0  0  0  0  0  0  0  0  0  0  0  0
   -1.4650   44.6370   55.9780 C   0  0  0  0  0  0  0  0  0  0  0  0
   -2.2460   43.5170   53.9850 O   0  0  0  0  0  0  0  0  0  0  0  0
   -2.0590   43.0800   52.6410 C   0  0  0  0  0  0  0  0  0  0  0  0
   -0.7310   42.3340   52.5120 C   0  0  0  0  0  0  0  0  0  0  0  0
    0.4360   43.2280   52.9730 C   0  0  2  0  0  0  0  0  0  0  0  0
    1.6550   42.4180   53.0490 N   0  0  0  0  0  0  0  0  0  0  0  0
    2.8400   42.7750   52.3340 C   0  0  0  0  0  0  0  0  0  0  0  0
    3.2090   42.2070   51.1720 N   0  0  0  0  0  0  0  0  0  0  0  0
    4.3440   42.7950   50.8260 N   0  0  0  0  0  0  0  0  0  0  0  0
    4.6190   43.6950   51.7920 C   0  0  0  0  0  0  0  0  0  0  0  0
    5.8010   44.5680   51.7940 C   0  0  0  0  0  0  0  0  0  0  0  0
    6.5190   44.8050   50.6120 C   0  0  0  0  0  0  0  0  0  0  0  0
    7.6370   45.6410   50.6400 C   0  0  0  0  0  0  0  0  0  0  0  0
    8.0340   46.2340   51.8440 C   0  0  0  0  0  0  0  0  0  0  0  0
    9.1500   47.0810   51.9080 C   0  0  0  0  0  0  0  0  0  0  0  0
    9.5190   47.6610   53.1260 C   0  0  0  0  0  0  0  0  0  0  0  0
    8.7770   47.4010   54.2820 C   0  0  0  0  0  0  0  0  0  0  0  0
    7.6630   46.5570   54.2280 C   0  0  0  0  0  0  0  0  0  0  0  0
    7.2870   45.9710   53.0140 C   0  0  0  0  0  0  0  0  0  0  0  0
    6.2010   45.1540   52.9560 N   0  0  0  0  0  0  0  0  0  0  0  0
    3.6950   43.6870   52.7250 O   0  0  0  0  0  0  0  0  0  0  0  0
  1  2  2  0
  2  3  1  0
  3  4  2  0
  4  5  1  0
  5  6  2  0
  5  7  1  0
  7  8  1  0
  8  9  1  0
  9 10  1  0
 10 11  1  1
 11 12  1  0
 12 13  2  0
 13 14  1  0
 14 15  2  0
 15 16  1  0
 16 17  2  0
 17 18  1  0
 18 19  2  0
 19 20  1  0
 20 21  2  0
 21 22  1  0
 22 23  2  0
 23 24  1  0
 24 25  2  0
 15 26  1  0
  6  1  1  0
 26 12  1  0
 10  4  1  0
 25 16  1  0
 24 19  1  0
M  END
>  <meeko>  (1) 
{"is_sidechain": [false], "free_energy": -10.11, "intermolecular_energy": -11.883, "internal_energy": -0.548}

$$$$
