ligand_92_conformer_5_docked
     RDKit          3D

 21 23  0  0  0  0  0  0  0  0999 V2000
    1.0050   43.2350   54.1810 O   0  0  0  0  0  0  0  0  0  0  0  0
    1.9810   43.4270   53.4080 C   0  0  0  0  0  0  0  0  0  0  0  0
    2.5710   44.7940   53.2550 C   0  0  0  0  0  0  0  0  0  0  0  0
    4.1110   44.7100   53.0570 C   0  0  2  0  0  0  0  0  0  0  0  0
    4.7010   44.2200   54.2390 O   0  0  0  0  0  0  0  0  0  0  0  0
    4.6510   46.0990   52.7390 C   0  0  0  0  0  0  0  0  0  0  0  0
    3.8970   46.9630   52.2160 O   0  0  0  0  0  0  0  0  0  0  0  0
    6.0310   46.4230   52.9360 N   0  0  0  0  0  0  0  0  0  0  0  0
    7.2770   45.7700   53.3900 C   0  0  0  0  0  0  0  0  0  0  0  0
    8.1730   46.9400   53.1220 C   0  0  0  0  0  0  0  0  0  0  0  0
    8.8040   47.5710   54.3720 C   0  0  0  0  0  0  0  0  0  0  0  0
   10.1870   47.5910   54.3000 F   0  0  0  0  0  0  0  0  0  0  0  0
    6.9000   47.5840   52.6670 C   0  0  0  0  0  0  0  0  0  0  0  0
    4.4420   43.7150   51.9390 C   0  0  0  0  0  0  0  0  0  0  0  0
    5.6070   43.8410   51.1500 C   0  0  0  0  0  0  0  0  0  0  0  0
    5.9380   42.8670   50.2050 C   0  0  0  0  0  0  0  0  0  0  0  0
    7.5090   43.0690   49.1370 Br  0  0  0  0  0  0  0  0  0  0  0  0
    5.1320   41.7380   50.0500 C   0  0  0  0  0  0  0  0  0  0  0  0
    3.9970   41.5760   50.8440 C   0  0  0  0  0  0  0  0  0  0  0  0
    3.6480   42.5500   51.7900 C   0  0  0  0  0  0  0  0  0  0  0  0
    2.4880   42.3560   52.6120 N   0  0  0  0  0  0  0  0  0  0  0  0
  1  2  2  0
  2  3  1  0
  3  4  1  0
  4  5  1  1
  4  6  1  0
  6  7  2  0
  6  8  1  0
  8  9  1  0
  9 10  1  0
 10 11  1  0
 11 12  1  0
 10 13  1  0
  4 14  1  0
 14 15  2  0
 15 16  1  0
 16 17  1  0
 16 18  2  0
 18 19  1  0
 19 20  2  0
 20 21  1  0
 21  2  1  0
 13  8  1  0
 20 14  1  0
M  END
>  <meeko>  (1) 
{"is_sidechain": [false], "free_energy": -8.87, "intermolecular_energy": -10.166, "internal_energy": 0.067}

$$$$
