ligand_65_conformer_5_docked
     RDKit          3D

 22 25  0  0  0  0  0  0  0  0999 V2000
    4.4000   45.3100   55.3230 C   0  0  0  0  0  0  0  0  0  0  0  0
    3.4180   46.3540   54.7840 C   0  0  1  0  0  0  0  0  0  0  0  0
    4.0840   47.2420   53.8250 N   0  0  0  0  0  0  0  0  0  0  0  0
    5.4010   46.9660   53.3260 C   0  0  0  0  0  0  0  0  0  0  0  0
    6.5150   47.3400   54.0280 N   0  0  0  0  0  0  0  0  0  0  0  0
    7.7790   47.0940   53.5630 C   0  0  0  0  0  0  0  0  0  0  0  0
    8.9010   47.4890   54.2990 C   0  0  0  0  0  0  0  0  0  0  0  0
   10.1860   47.2280   53.8050 C   0  0  0  0  0  0  0  0  0  0  0  0
   10.3530   46.5740   52.5780 C   0  0  0  0  0  0  0  0  0  0  0  0
    9.2380   46.1740   51.8320 C   0  0  0  0  0  0  0  0  0  0  0  0
    7.9510   46.4330   52.3220 C   0  0  0  0  0  0  0  0  0  0  0  0
    6.8260   46.0750   51.6530 N   0  0  0  0  0  0  0  0  0  0  0  0
    6.6980   45.4610   50.4930 N   0  0  0  0  0  0  0  0  0  0  0  0
    5.3970   45.3330   50.2490 N   0  0  0  0  0  0  0  0  0  0  0  0
    4.6780   45.8590   51.2390 N   0  0  0  0  0  0  0  0  0  0  0  0
    5.5980   46.3170   52.1060 C   0  0  0  0  0  0  0  0  0  0  0  0
    2.2480   45.6670   54.1270 C   0  0  0  0  0  0  0  0  0  0  0  0
    1.7080   46.1470   52.9250 C   0  0  0  0  0  0  0  0  0  0  0  0
    0.6490   45.5070   52.3640 N   0  0  0  0  0  0  0  0  0  0  0  0
    0.0960   44.4120   52.9500 C   0  0  0  0  0  0  0  0  0  0  0  0
    0.6250   43.9350   54.1500 C   0  0  0  0  0  0  0  0  0  0  0  0
    1.6850   44.5730   54.7120 N   0  0  0  0  0  0  0  0  0  0  0  0
  2  1  1  6
  2  3  1  0
  3  4  1  0
  4  5  2  0
  5  6  1  0
  6  7  2  0
  7  8  1  0
  8  9  2  0
  9 10  1  0
 10 11  2  0
 11 12  1  0
 12 13  1  0
 13 14  2  0
 14 15  1  0
 15 16  2  0
  2 17  1  0
 17 18  2  0
 18 19  1  0
 19 20  2  0
 20 21  1  0
 21 22  2  0
 16  4  1  0
 22 17  1  0
 11  6  1  0
 16 12  1  0
M  END
>  <meeko>  (1) 
{"is_sidechain": [false], "free_energy": -8.901, "intermolecular_energy": -10.462, "internal_energy": -0.297}

$$$$
