ligand_45_conformer_1_docked
     RDKit          3D

 25 27  0  0  0  0  0  0  0  0999 V2000
   10.1380   46.5070   52.3180 C   0  0  0  0  0  0  0  0  0  0  0  0
    9.5300   47.4950   53.2250 N   0  0  0  0  0  0  0  0  0  0  0  0
    9.9840   47.2390   54.6040 C   0  0  0  0  0  0  0  0  0  0  0  0
    8.0530   47.4360   53.1300 C   0  0  0  0  0  0  0  0  0  0  0  0
    7.4280   46.9040   54.4270 C   0  0  0  0  0  0  0  0  0  0  0  0
    5.9660   46.5880   54.2440 C   0  0  0  0  0  0  0  0  0  0  0  0
    5.3720   45.5370   54.9590 C   0  0  0  0  0  0  0  0  0  0  0  0
    4.0080   45.2680   54.8160 C   0  0  0  0  0  0  0  0  0  0  0  0
    3.2150   46.0600   53.9720 C   0  0  0  0  0  0  0  0  0  0  0  0
    1.7640   45.7220   53.7620 C   0  0  0  0  0  0  0  0  0  0  0  0
    1.6300   44.2870   53.5360 N   0  0  0  0  0  0  0  0  0  0  0  0
    1.9030   43.7100   52.2530 C   0  0  0  0  0  0  0  0  0  0  0  0
    1.6310   44.3480   51.2000 O   0  0  0  0  0  0  0  0  0  0  0  0
    2.6140   42.3970   52.1620 C   0  0  0  0  0  0  0  0  0  0  0  0
    3.9270   42.5950   51.4560 C   0  0  0  0  0  0  0  0  0  0  0  0
    4.4420   41.5770   50.6200 C   0  0  0  0  0  0  0  0  0  0  0  0
    5.6300   41.7770   49.9000 C   0  0  0  0  0  0  0  0  0  0  0  0
    6.2750   43.0040   50.0240 C   0  0  0  0  0  0  0  0  0  0  0  0
    7.6880   43.5180   49.2820 S   0  0  0  0  0  0  0  0  0  0  0  0
    7.6750   45.0610   49.9760 C   0  0  0  0  0  0  0  0  0  0  0  0
    6.5570   45.1810   50.7990 C   0  0  0  0  0  0  0  0  0  0  0  0
    5.7770   44.0190   50.8240 C   0  0  0  0  0  0  0  0  0  0  0  0
    4.5990   43.8330   51.5480 C   0  0  0  0  0  0  0  0  0  0  0  0
    3.8100   47.1070   53.2510 C   0  0  0  0  0  0  0  0  0  0  0  0
    5.1750   47.3750   53.3930 C   0  0  0  0  0  0  0  0  0  0  0  0
  1  2  1  0
  2  3  1  0
  2  4  1  0
  4  5  1  0
  5  6  1  0
  6  7  2  0
  7  8  1  0
  8  9  2  0
  9 10  1  0
 10 11  1  0
 11 12  1  0
 12 13  2  0
 12 14  1  0
 14 15  1  0
 15 16  2  0
 16 17  1  0
 17 18  2  0
 18 19  1  0
 19 20  1  0
 20 21  2  0
 21 22  1  0
 22 23  2  0
  9 24  1  0
 24 25  2  0
 25  6  1  0
 23 15  1  0
 22 18  1  0
M  END
>  <meeko>  (1) 
{"is_sidechain": [false], "free_energy": -8.75, "intermolecular_energy": -12.33, "internal_energy": -1.821}

$$$$
