ligand_67_conformer_3_docked
     RDKit          3D

 32 34  0  0  0  0  0  0  0  0999 V2000
    6.5430   45.0500   50.7480 C   0  0  0  0  0  0  0  0  0  0  0  0
    6.3460   45.3150   52.2340 C   0  0  0  0  0  0  0  0  0  0  0  0
    6.0430   46.7450   52.4470 N   0  0  0  0  0  0  0  0  0  0  0  0
    7.1050   47.5730   53.0790 C   0  0  0  0  0  0  0  0  0  0  0  0
    8.0360   48.1870   52.0010 C   0  0  0  0  0  0  0  0  0  0  0  0
    9.2480   47.3120   51.6230 C   0  0  0  0  0  0  0  0  0  0  0  0
    9.9430   46.6390   52.8280 C   0  0  0  0  0  0  0  0  0  0  0  0
    9.3810   47.0820   54.1830 C   0  0  0  0  0  0  0  0  0  0  0  0
    7.8660   46.8670   54.2420 C   0  0  0  0  0  0  0  0  0  0  0  0
    4.4570   46.9930   53.1570 S   0  0  0  0  0  0  0  0  0  0  0  0
    4.4680   48.2640   53.9610 O   0  0  0  0  0  0  0  0  0  0  0  0
    3.4460   47.1400   52.0530 O   0  0  0  0  0  0  0  0  0  0  0  0
    3.9590   45.6250   54.2060 C   0  0  0  0  0  0  0  0  0  0  0  0
    2.7260   44.9030   53.6510 C   0  0  0  0  0  0  0  0  0  0  0  0
    3.0520   43.5370   53.2450 N   0  0  0  0  0  0  0  0  0  0  0  0
    3.3900   43.1940   51.8930 C   0  0  0  0  0  0  0  0  0  0  0  0
    3.2790   44.0560   50.9800 O   0  0  0  0  0  0  0  0  0  0  0  0
    3.8860   41.8800   51.5980 N   0  0  0  0  0  0  0  0  0  0  0  0
    4.2470   41.4250   50.2860 C   0  0  0  0  0  0  0  0  0  0  0  0
    5.4280   41.6890   49.6100 C   0  0  0  0  0  0  0  0  0  0  0  0
    5.2640   41.0630   48.3930 C   0  0  0  0  0  0  0  0  0  0  0  0
    4.0530   40.4650   48.3720 N   0  0  0  0  0  0  0  0  0  0  0  0
    3.4650   39.7500   47.2710 C   0  0  0  0  0  0  0  0  0  0  0  0
    2.7560   38.5660   47.5310 C   0  0  0  0  0  0  0  0  0  0  0  0
    2.1790   37.8380   46.4870 C   0  0  0  0  0  0  0  0  0  0  0  0
    2.3120   38.2780   45.1710 C   0  0  0  0  0  0  0  0  0  0  0  0
    3.0260   39.4440   44.8900 C   0  0  0  0  0  0  0  0  0  0  0  0
    3.1630   39.8410   43.5990 F   0  0  0  0  0  0  0  0  0  0  0  0
    3.6130   40.1850   45.9310 C   0  0  0  0  0  0  0  0  0  0  0  0
    4.4110   41.3420   45.5970 C   0  0  0  0  0  0  0  0  0  0  0  0
    5.0480   42.2690   45.3270 N   0  0  0  0  0  0  0  0  0  0  0  0
    3.4180   40.7000   49.5100 N   0  0  0  0  0  0  0  0  0  0  0  0
  1  2  1  0
  2  3  1  0
  3  4  1  0
  4  5  1  0
  5  6  1  0
  6  7  1  0
  7  8  1  0
  8  9  1  0
  3 10  1  0
 10 11  2  0
 10 12  2  0
 10 13  1  0
 13 14  1  0
 14 15  1  0
 15 16  1  0
 16 17  2  0
 16 18  1  0
 18 19  1  0
 19 20  1  0
 20 21  2  0
 21 22  1  0
 22 23  1  0
 23 24  2  0
 24 25  1  0
 25 26  2  0
 26 27  1  0
 27 28  1  0
 27 29  2  0
 29 30  1  0
 30 31  3  0
 22 32  1  0
  9  4  1  0
 32 19  2  0
 29 23  1  0
M  END
>  <meeko>  (1) 
{"is_sidechain": [false], "free_energy": -9.954, "intermolecular_energy": -14.609, "internal_energy": -0.945}

$$$$
