ligand_71_conformer_5_docked
     RDKit          3D

 25 27  0  0  0  0  0  0  0  0999 V2000
    7.2760   45.7740   50.5960 C   0  0  0  0  0  0  0  0  0  0  0  0
    8.1530   46.2200   51.7360 C   0  0  0  0  0  0  0  0  0  0  0  0
    9.5480   46.1070   51.5940 C   0  0  0  0  0  0  0  0  0  0  0  0
   10.4030   46.5490   52.6050 C   0  0  0  0  0  0  0  0  0  0  0  0
    9.8800   47.1070   53.7700 C   0  0  0  0  0  0  0  0  0  0  0  0
    8.4980   47.2090   53.9370 C   0  0  0  0  0  0  0  0  0  0  0  0
    7.6200   46.7490   52.9400 C   0  0  0  0  0  0  0  0  0  0  0  0
    6.1640   46.8500   53.1840 C   0  0  0  0  0  0  0  0  0  0  0  0
    5.6670   47.9710   53.4770 O   0  0  0  0  0  0  0  0  0  0  0  0
    5.3350   45.6780   53.1470 N   0  0  0  0  0  0  0  0  0  0  0  0
    3.9040   45.7230   53.1070 C   0  0  0  0  0  0  0  0  0  0  0  0
    3.1070   45.3180   54.1170 N   0  0  0  0  0  0  0  0  0  0  0  0
    1.7870   45.4980   53.8330 C   0  0  0  0  0  0  0  0  0  0  0  0
    0.7190   45.1220   54.7970 C   0  0  0  0  0  0  0  0  0  0  0  0
    0.7420   45.6420   56.1070 C   0  0  0  0  0  0  0  0  0  0  0  0
   -0.2600   45.3130   57.0210 C   0  0  0  0  0  0  0  0  0  0  0  0
   -1.2980   44.4640   56.6460 C   0  0  0  0  0  0  0  0  0  0  0  0
   -1.3410   43.9390   55.3550 C   0  0  0  0  0  0  0  0  0  0  0  0
   -0.3360   44.2580   54.4170 C   0  0  0  0  0  0  0  0  0  0  0  0
   -0.3510   43.7220   53.1170 O   0  0  0  0  0  0  0  0  0  0  0  0
    0.2560   42.4930   52.7280 C   0  0  0  0  0  0  0  0  0  0  0  0
    1.1710   42.7180   51.7160 F   0  0  0  0  0  0  0  0  0  0  0  0
    0.9130   41.9510   53.8150 F   0  0  0  0  0  0  0  0  0  0  0  0
    1.5390   46.0570   52.5750 C   0  0  0  0  0  0  0  0  0  0  0  0
    3.0180   46.3300   51.8190 S   0  0  0  0  0  0  0  0  0  0  0  0
  1  2  1  0
  2  3  2  0
  3  4  1  0
  4  5  2  0
  5  6  1  0
  6  7  2  0
  7  8  1  0
  8  9  2  0
  8 10  1  0
 10 11  1  0
 11 12  2  0
 12 13  1  0
 13 14  1  0
 14 15  2  0
 15 16  1  0
 16 17  2  0
 17 18  1  0
 18 19  2  0
 19 20  1  0
 20 21  1  0
 21 22  1  0
 21 23  1  0
 13 24  2  0
 24 25  1  0
  7  2  1  0
 25 11  1  0
 19 14  1  0
M  END
>  <meeko>  (1) 
{"is_sidechain": [false], "free_energy": -9.042, "intermolecular_energy": -11.685, "internal_energy": -0.466}

$$$$
