ligand_36_conformer_4_docked
     RDKit          3D

 23 26  0  0  0  0  0  0  0  0999 V2000
    1.6000   46.5460   52.4630 O   0  0  0  0  0  0  0  0  0  0  0  0
    2.5020   45.7180   52.7640 C   0  0  0  0  0  0  0  0  0  0  0  0
    2.3700   44.3250   52.2970 C   0  0  0  0  0  0  0  0  0  0  0  0
    1.2980   43.4910   52.5340 C   0  0  0  0  0  0  0  0  0  0  0  0
    1.5900   42.2730   52.0460 N   0  0  0  0  0  0  0  0  0  0  0  0
    2.7950   42.2860   51.4960 N   0  0  0  0  0  0  0  0  0  0  0  0
    3.2920   43.5310   51.6260 C   0  0  0  0  0  0  0  0  0  0  0  0
    4.5870   43.9380   51.0590 C   0  0  0  0  0  0  0  0  0  0  0  0
    5.0430   45.2420   50.8920 C   0  0  0  0  0  0  0  0  0  0  0  0
    6.3020   45.3140   50.2870 C   0  0  0  0  0  0  0  0  0  0  0  0
    6.8260   44.0700   49.9710 C   0  0  0  0  0  0  0  0  0  0  0  0
    8.3740   43.7780   49.2070 Cl  0  0  0  0  0  0  0  0  0  0  0  0
    5.7320   42.8790   50.4260 S   0  0  0  0  0  0  0  0  0  0  0  0
    3.6200   46.1430   53.5680 N   0  0  0  0  0  0  0  0  0  0  0  0
    4.1180   45.2980   54.6630 C   0  0  0  0  0  0  0  0  0  0  0  0
    5.6520   45.4020   54.8050 C   0  0  0  0  0  0  0  0  0  0  0  0
    6.2230   46.5530   54.0690 N   0  0  0  0  0  0  0  0  0  0  0  0
    7.6090   46.8040   54.5090 C   0  0  0  0  0  0  0  0  0  0  0  0
    8.4210   47.4490   53.3770 C   0  0  0  0  0  0  0  0  0  0  0  0
    9.0180   46.4500   52.3970 C   0  0  0  0  0  0  0  0  0  0  0  0
    9.9190   47.1810   53.3780 C   0  0  0  0  0  0  0  0  0  0  0  0
    5.3760   47.7480   54.2460 C   0  0  0  0  0  0  0  0  0  0  0  0
    4.0590   47.5420   53.4920 C   0  0  0  0  0  0  0  0  0  0  0  0
  1  2  2  0
  2  3  1  0
  3  4  2  0
  4  5  1  0
  5  6  1  0
  6  7  2  0
  7  8  1  0
  8  9  2  0
  9 10  1  0
 10 11  2  0
 11 12  1  0
 11 13  1  0
  2 14  1  0
 14 15  1  0
 15 16  1  0
 16 17  1  0
 17 18  1  0
 18 19  1  0
 19 20  1  0
 20 21  1  0
 17 22  1  0
 22 23  1  0
  7  3  1  0
 13  8  1  0
 23 14  1  0
 21 19  1  0
M  END
>  <meeko>  (1) 
{"is_sidechain": [false], "free_energy": -8.45, "intermolecular_energy": -10.426, "internal_energy": -0.534}

$$$$
