ligand_90_conformer_2_docked
     RDKit          3D

 25 27  0  0  0  0  0  0  0  0999 V2000
   -0.5920   44.7030   54.7470 C   0  0  0  0  0  0  0  0  0  0  0  0
    0.5950   45.4110   55.2540 N   0  0  0  0  0  0  0  0  0  0  0  0
    0.3990   45.7290   56.6790 C   0  0  0  0  0  0  0  0  0  0  0  0
    1.8120   44.5900   55.0450 C   0  0  0  0  0  0  0  0  0  0  0  0
    2.6300   45.0900   53.8180 C   0  0  2  0  0  0  0  0  0  0  0  0
    2.6610   44.0860   52.6760 C   0  0  0  0  0  0  0  0  0  0  0  0
    1.5710   43.9160   51.7970 C   0  0  0  0  0  0  0  0  0  0  0  0
    1.6240   42.9580   50.7800 C   0  0  0  0  0  0  0  0  0  0  0  0
    2.7520   42.1490   50.6350 C   0  0  0  0  0  0  0  0  0  0  0  0
    3.8300   42.2930   51.5110 C   0  0  0  0  0  0  0  0  0  0  0  0
    3.7840   43.2490   52.5290 C   0  0  0  0  0  0  0  0  0  0  0  0
    4.0200   45.5220   54.1240 N   0  0  0  0  0  0  0  0  0  0  0  0
    4.3100   45.7870   55.5410 C   0  0  0  0  0  0  0  0  0  0  0  0
    4.5590   46.8540   53.1230 S   0  0  0  0  0  0  0  0  0  0  0  0
    3.4860   47.1940   52.1260 O   0  0  0  0  0  0  0  0  0  0  0  0
    4.7730   48.0670   53.9820 O   0  0  0  0  0  0  0  0  0  0  0  0
    6.0320   46.4530   52.2290 C   0  0  0  0  0  0  0  0  0  0  0  0
    5.9680   45.8270   50.9830 C   0  0  0  0  0  0  0  0  0  0  0  0
    7.5330   45.5440   50.4180 S   0  0  0  0  0  0  0  0  0  0  0  0
    8.3020   46.2170   51.7450 C   0  0  0  0  0  0  0  0  0  0  0  0
    9.6720   46.3190   51.9710 C   0  0  0  0  0  0  0  0  0  0  0  0
   10.1060   46.9120   53.1650 C   0  0  0  0  0  0  0  0  0  0  0  0
    9.1700   47.3840   54.1010 C   0  0  0  0  0  0  0  0  0  0  0  0
    7.7920   47.2690   53.8540 C   0  0  0  0  0  0  0  0  0  0  0  0
    7.3590   46.6760   52.6580 C   0  0  0  0  0  0  0  0  0  0  0  0
  1  2  1  0
  2  3  1  0
  2  4  1  0
  5  4  1  1
  5  6  1  0
  6  7  2  0
  7  8  1  0
  8  9  2  0
  9 10  1  0
 10 11  2  0
  5 12  1  0
 12 13  1  0
 12 14  1  0
 14 15  2  0
 14 16  2  0
 14 17  1  0
 17 18  2  0
 18 19  1  0
 19 20  1  0
 20 21  2  0
 21 22  1  0
 22 23  2  0
 23 24  1  0
 24 25  2  0
 11  6  1  0
 25 17  1  0
 25 20  1  0
M  END
>  <meeko>  (1) 
{"is_sidechain": [false], "free_energy": -8.71, "intermolecular_energy": -11.766, "internal_energy": -0.758}

$$$$
