ligand_3_conformer_5_docked
     RDKit          3D

 26 29  0  0  0  0  0  0  0  0999 V2000
    7.7000   44.5520   49.2680 O   0  0  0  0  0  0  0  0  0  0  0  0
    7.2850   44.9950   50.3740 C   0  0  0  0  0  0  0  0  0  0  0  0
    5.8830   44.7350   50.7720 C   0  0  0  0  0  0  0  0  0  0  0  0
    5.4810   43.4400   51.1380 C   0  0  0  0  0  0  0  0  0  0  0  0
    4.1560   43.1850   51.5010 C   0  0  0  0  0  0  0  0  0  0  0  0
    3.2090   44.2200   51.5040 C   0  0  0  0  0  0  0  0  0  0  0  0
    1.8430   43.9480   51.8660 N   0  0  0  0  0  0  0  0  0  0  0  0
    0.8950   43.3830   51.0760 C   0  0  0  0  0  0  0  0  0  0  0  0
   -0.3120   43.2630   51.6880 N   0  0  0  0  0  0  0  0  0  0  0  0
   -0.0850   43.7760   52.9110 C   0  0  0  0  0  0  0  0  0  0  0  0
   -0.9880   43.8730   53.9680 C   0  0  0  0  0  0  0  0  0  0  0  0
   -0.5200   44.4060   55.1830 C   0  0  0  0  0  0  0  0  0  0  0  0
    0.8280   44.8130   55.3130 C   0  0  0  0  0  0  0  0  0  0  0  0
    1.7160   44.6980   54.2280 C   0  0  0  0  0  0  0  0  0  0  0  0
    1.2110   44.1880   53.0280 C   0  0  0  0  0  0  0  0  0  0  0  0
    3.6000   45.5070   51.1050 C   0  0  0  0  0  0  0  0  0  0  0  0
    4.9260   45.7630   50.7420 C   0  0  0  0  0  0  0  0  0  0  0  0
    8.1820   45.7370   51.2210 N   0  0  0  0  0  0  0  0  0  0  0  0
    9.6240   45.4390   51.1640 C   0  0  0  0  0  0  0  0  0  0  0  0
   10.4420   46.4300   51.9980 C   0  0  0  0  0  0  0  0  0  0  0  0
    9.7780   46.6270   53.3620 C   0  0  0  0  0  0  0  0  0  0  0  0
    8.3380   47.2220   53.2370 C   0  0  2  0  0  0  0  0  0  0  0  0
    8.3850   48.6080   53.4920 O   0  0  0  0  0  0  0  0  0  0  0  0
    7.4220   46.6020   54.3170 C   0  0  0  0  0  0  0  0  0  0  0  0
    6.3170   47.4270   54.5870 O   0  0  0  0  0  0  0  0  0  0  0  0
    7.7200   46.9970   51.8220 C   0  0  0  0  0  0  0  0  0  0  0  0
  1  2  2  0
  2  3  1  0
  3  4  2  0
  4  5  1  0
  5  6  2  0
  6  7  1  0
  7  8  1  0
  8  9  2  0
  9 10  1  0
 10 11  2  0
 11 12  1  0
 12 13  2  0
 13 14  1  0
 14 15  2  0
  6 16  1  0
 16 17  2  0
  2 18  1  0
 18 19  1  0
 19 20  1  0
 20 21  1  0
 21 22  1  0
 22 23  1  1
 22 24  1  0
 24 25  1  0
 22 26  1  0
 17  3  1  0
 26 18  1  0
 15  7  1  0
 15 10  1  0
M  END
>  <meeko>  (1) 
{"is_sidechain": [false], "free_energy": -9.033, "intermolecular_energy": -11.673, "internal_energy": -0.51}

$$$$
