ligand_78_conformer_5_docked
     RDKit          3D

 23 25  0  0  0  0  0  0  0  0999 V2000
    5.7270   44.4420   51.2260 C   0  0  0  0  0  0  0  0  0  0  0  0
    5.4820   45.9440   51.0940 C   0  0  0  0  0  0  0  0  0  0  0  0
    6.0600   46.6850   52.2290 N   0  0  0  0  0  0  0  0  0  0  0  0
    5.1750   47.3430   53.2050 C   0  0  0  0  0  0  0  0  0  0  0  0
    3.8400   46.6660   53.2630 C   0  0  0  0  0  0  0  0  0  0  0  0
    3.5250   45.5140   53.9500 C   0  0  0  0  0  0  0  0  0  0  0  0
    2.2050   45.3340   53.7810 N   0  0  0  0  0  0  0  0  0  0  0  0
    1.3840   44.2970   54.3940 C   0  0  0  0  0  0  0  0  0  0  0  0
    0.5420   44.8920   55.4740 C   0  0  0  0  0  0  0  0  0  0  0  0
    1.0500   45.5770   56.5230 N   0  0  0  0  0  0  0  0  0  0  0  0
    0.0700   46.0860   57.3150 C   0  0  0  0  0  0  0  0  0  0  0  0
   -1.2280   45.8220   56.8930 C   0  0  0  0  0  0  0  0  0  0  0  0
   -1.1390   44.9230   55.4750 S   0  0  0  0  0  0  0  0  0  0  0  0
    1.7300   46.3320   53.0530 N   0  0  0  0  0  0  0  0  0  0  0  0
    2.7090   47.1620   52.7200 N   0  0  0  0  0  0  0  0  0  0  0  0
    7.4920   46.6990   52.4270 C   0  0  0  0  0  0  0  0  0  0  0  0
    8.3620   46.3150   51.3900 C   0  0  0  0  0  0  0  0  0  0  0  0
    9.7450   46.3460   51.5790 C   0  0  0  0  0  0  0  0  0  0  0  0
   10.2780   46.7560   52.8030 C   0  0  0  0  0  0  0  0  0  0  0  0
    9.4270   47.1290   53.8520 C   0  0  0  0  0  0  0  0  0  0  0  0
    9.9990   47.6130   55.1570 C   0  0  0  0  0  0  0  0  0  0  0  0
    9.1970   48.6320   55.6850 O   0  0  0  0  0  0  0  0  0  0  0  0
    8.0380   47.1120   53.6540 C   0  0  0  0  0  0  0  0  0  0  0  0
  1  2  1  0
  2  3  1  0
  3  4  1  0
  4  5  1  0
  5  6  2  0
  6  7  1  0
  7  8  1  0
  8  9  1  0
  9 10  2  0
 10 11  1  0
 11 12  2  0
 12 13  1  0
  7 14  1  0
 14 15  2  0
  3 16  1  0
 16 17  2  0
 17 18  1  0
 18 19  2  0
 19 20  1  0
 20 21  1  0
 21 22  1  0
 20 23  2  0
 15  5  1  0
 23 16  1  0
 13  9  1  0
M  END
>  <meeko>  (1) 
{"is_sidechain": [false], "free_energy": -8.016, "intermolecular_energy": -11.531, "internal_energy": -0.342}

$$$$
