ligand_22_conformer_4_docked
     RDKit          3D

 24 27  0  0  0  0  0  0  0  0999 V2000
    2.7460   47.3370   52.7470 O   0  0  0  0  0  0  0  0  0  0  0  0
    3.9030   46.8440   52.8070 C   0  0  0  0  0  0  0  0  0  0  0  0
    4.8560   46.9660   51.7590 N   0  0  0  0  0  0  0  0  0  0  0  0
    6.0460   46.2110   52.1470 C   0  0  2  0  0  0  0  0  0  0  0  0
    7.3130   47.1020   52.1760 C   0  0  0  0  0  0  0  0  0  0  0  0
    8.3420   46.4480   51.2320 C   0  0  0  0  0  0  0  0  0  0  0  0
    7.6270   45.2820   50.6560 C   0  0  0  0  0  0  0  0  0  0  0  0
    8.1280   44.3830   49.7110 C   0  0  0  0  0  0  0  0  0  0  0  0
    7.3070   43.3310   49.2770 C   0  0  0  0  0  0  0  0  0  0  0  0
    6.0050   43.1920   49.7900 C   0  0  0  0  0  0  0  0  0  0  0  0
    5.5210   44.1050   50.7400 C   0  0  0  0  0  0  0  0  0  0  0  0
    6.3570   45.1460   51.1600 C   0  0  0  0  0  0  0  0  0  0  0  0
    5.6740   45.6580   53.4960 C   0  0  0  0  0  0  0  0  0  0  0  0
    6.4030   44.8910   54.1820 O   0  0  0  0  0  0  0  0  0  0  0  0
    4.3800   46.0840   53.9080 N   0  0  0  0  0  0  0  0  0  0  0  0
    3.5760   45.5070   54.9850 C   0  0  0  0  0  0  0  0  0  0  0  0
    2.5020   44.6210   54.4210 C   0  0  0  0  0  0  0  0  0  0  0  0
    2.7960   43.8290   53.3530 N   0  0  0  0  0  0  0  0  0  0  0  0
    1.8700   43.0170   52.7790 C   0  0  0  0  0  0  0  0  0  0  0  0
    0.5670   42.9790   53.2800 C   0  0  0  0  0  0  0  0  0  0  0  0
   -0.6350   41.9360   52.5440 Cl  0  0  0  0  0  0  0  0  0  0  0  0
    0.2320   43.7830   54.3710 C   0  0  0  0  0  0  0  0  0  0  0  0
    1.1950   44.6130   54.9510 C   0  0  0  0  0  0  0  0  0  0  0  0
    0.7390   45.6190   56.3220 Cl  0  0  0  0  0  0  0  0  0  0  0  0
  1  2  2  0
  2  3  1  0
  4  3  1  0
  4  5  1  1
  5  6  1  0
  6  7  1  0
  7  8  2  0
  8  9  1  0
  9 10  2  0
 10 11  1  0
 11 12  2  0
  4 13  1  0
 13 14  2  0
 13 15  1  0
 15 16  1  0
 16 17  1  0
 17 18  2  0
 18 19  1  0
 19 20  2  0
 20 21  1  0
 20 22  1  0
 22 23  2  0
 23 24  1  0
 15  2  1  0
 23 17  1  0
 12  4  1  0
 12  7  1  0
M  END
>  <meeko>  (1) 
{"is_sidechain": [false], "free_energy": -9.71, "intermolecular_energy": -10.846, "internal_energy": -0.282}

$$$$
