ligand_75_conformer_1_docked
     RDKit          3D

 30 35  0  0  0  0  0  0  0  0999 V2000
    3.3510   40.2430   49.5230 O   0  0  0  0  0  0  0  0  0  0  0  0
    3.5680   41.2580   50.2390 C   0  0  0  0  0  0  0  0  0  0  0  0
    2.6950   41.6200   51.2280 N   0  0  0  0  0  0  0  0  0  0  0  0
    2.9290   42.7210   52.0200 C   0  0  0  0  0  0  0  0  0  0  0  0
    1.9380   43.1150   53.0780 C   0  0  0  0  0  0  0  0  0  0  0  0
    1.8130   44.5860   53.1660 N   0  0  0  0  0  0  0  0  0  0  0  0
    2.0100   45.0630   54.5610 C   0  0  0  0  0  0  0  0  0  0  0  0
    3.4340   45.5770   54.8120 C   0  0  0  0  0  0  0  0  0  0  0  0
    3.7470   46.7860   53.9040 C   0  0  0  0  0  0  0  0  0  0  0  0
    5.2330   46.9080   53.6950 C   0  0  0  0  0  0  0  0  0  0  0  0
    5.7890   47.7370   52.7680 N   0  0  0  0  0  0  0  0  0  0  0  0
    7.1050   47.5090   52.9180 C   0  0  0  0  0  0  0  0  0  0  0  0
    8.1570   48.0950   52.2170 C   0  0  0  0  0  0  0  0  0  0  0  0
    9.4660   47.6960   52.5470 C   0  0  0  0  0  0  0  0  0  0  0  0
    9.6870   46.7310   53.5580 C   0  0  0  0  0  0  0  0  0  0  0  0
    8.6000   46.1590   54.2470 C   0  0  0  0  0  0  0  0  0  0  0  0
    7.3210   46.5810   53.8910 C   0  0  0  0  0  0  0  0  0  0  0  0
    6.1440   46.1860   54.3950 N   0  0  0  0  0  0  0  0  0  0  0  0
    2.9930   46.7140   52.5550 C   0  0  0  0  0  0  0  0  0  0  0  0
    2.6840   45.2630   52.1670 C   0  0  0  0  0  0  0  0  0  0  0  0
    4.0430   43.4910   51.8230 N   0  0  0  0  0  0  0  0  0  0  0  0
    4.9020   43.1300   50.8430 C   0  0  0  0  0  0  0  0  0  0  0  0
    4.6980   42.0380   50.0470 C   0  0  0  0  0  0  0  0  0  0  0  0
    5.6720   41.9010   49.1690 O   0  0  0  0  0  0  0  0  0  0  0  0
    6.5090   42.9000   49.3890 C   0  0  0  0  0  0  0  0  0  0  0  0
    7.6930   43.1820   48.7110 C   0  0  0  0  0  0  0  0  0  0  0  0
    8.4340   44.3090   49.1180 C   0  0  0  0  0  0  0  0  0  0  0  0
    7.9810   45.1220   50.1830 C   0  0  0  0  0  0  0  0  0  0  0  0
    6.7810   44.8210   50.8540 C   0  0  0  0  0  0  0  0  0  0  0  0
    6.0740   43.7010   50.4280 C   0  0  0  0  0  0  0  0  0  0  0  0
  1  2  2  0
  2  3  1  0
  3  4  1  0
  4  5  1  0
  5  6  1  0
  6  7  1  0
  7  8  1  0
  8  9  1  0
  9 10  1  0
 10 11  2  0
 11 12  1  0
 12 13  2  0
 13 14  1  0
 14 15  2  0
 15 16  1  0
 16 17  2  0
 17 18  1  0
  9 19  1  0
 19 20  1  0
  4 21  2  0
 21 22  1  0
 22 23  2  0
 23 24  1  0
 24 25  1  0
 25 26  2  0
 26 27  1  0
 27 28  2  0
 28 29  1  0
 29 30  2  0
 23  2  1  0
 30 25  1  0
 20  6  1  0
 30 22  1  0
 18 10  1  0
 17 12  1  0
M  END
>  <meeko>  (1) 
{"is_sidechain": [false], "free_energy": -11.398, "intermolecular_energy": -13.397, "internal_energy": 0.16}

$$$$
