ligand_17_conformer_5_docked
     RDKit          3D

 26 28  0  0  0  0  0  0  0  0999 V2000
    5.0310   47.9810   54.1110 O   0  0  0  0  0  0  0  0  0  0  0  0
    4.7690   46.8490   53.6210 C   0  0  0  0  0  0  0  0  0  0  0  0
    5.7300   46.2020   52.7700 N   0  0  0  0  0  0  0  0  0  0  0  0
    7.1350   46.5070   52.7740 C   0  0  0  0  0  0  0  0  0  0  0  0
    7.7580   46.8990   51.5810 C   0  0  0  0  0  0  0  0  0  0  0  0
    9.1260   47.1800   51.5570 C   0  0  0  0  0  0  0  0  0  0  0  0
    9.8860   47.0600   52.7210 C   0  0  0  0  0  0  0  0  0  0  0  0
    9.2920   46.6490   53.9190 C   0  0  0  0  0  0  0  0  0  0  0  0
   10.1040   46.5310   55.0570 O   0  0  0  0  0  0  0  0  0  0  0  0
   10.7710   47.6150   55.6970 C   0  0  0  0  0  0  0  0  0  0  0  0
   11.4100   47.1690   56.8400 F   0  0  0  0  0  0  0  0  0  0  0  0
    9.8390   48.5730   56.0500 F   0  0  0  0  0  0  0  0  0  0  0  0
    7.9110   46.3640   53.9400 C   0  0  0  0  0  0  0  0  0  0  0  0
    3.4500   46.2240   53.8880 C   0  0  0  0  0  0  0  0  0  0  0  0
    2.6060   45.8680   52.8220 C   0  0  0  0  0  0  0  0  0  0  0  0
    1.3560   45.2960   53.0680 C   0  0  0  0  0  0  0  0  0  0  0  0
    0.9360   45.0690   54.3800 C   0  0  0  0  0  0  0  0  0  0  0  0
    1.7660   45.4020   55.4590 C   0  0  0  0  0  0  0  0  0  0  0  0
    1.2990   45.1840   56.8010 N   0  0  0  0  0  0  0  0  0  0  0  0
    0.6180   46.1710   57.5890 C   0  0  0  0  0  0  0  0  0  0  0  0
   -0.6430   46.5480   57.2470 N   0  0  0  0  0  0  0  0  0  0  0  0
   -1.3260   47.4620   57.9850 C   0  0  0  0  0  0  0  0  0  0  0  0
   -0.7380   48.0220   59.1170 C   0  0  0  0  0  0  0  0  0  0  0  0
    0.5510   47.6170   59.4640 C   0  0  0  0  0  0  0  0  0  0  0  0
    1.2010   46.7010   58.7000 N   0  0  0  0  0  0  0  0  0  0  0  0
    3.0120   46.0050   55.2070 C   0  0  0  0  0  0  0  0  0  0  0  0
  1  2  2  0
  2  3  1  0
  3  4  1  0
  4  5  2  0
  5  6  1  0
  6  7  2  0
  7  8  1  0
  8  9  1  0
  9 10  1  0
 10 11  1  0
 10 12  1  0
  8 13  2  0
  2 14  1  0
 14 15  2  0
 15 16  1  0
 16 17  2  0
 17 18  1  0
 18 19  1  0
 19 20  1  0
 20 21  2  0
 21 22  1  0
 22 23  2  0
 23 24  1  0
 24 25  2  0
 18 26  2  0
 13  4  1  0
 26 14  1  0
 25 20  1  0
M  END
>  <meeko>  (1) 
{"is_sidechain": [false], "free_energy": -9.147, "intermolecular_energy": -12.355, "internal_energy": -0.734}

$$$$
