ligand_34_conformer_1_docked
     RDKit          3D

 27 30  0  0  0  0  0  0  0  0999 V2000
    8.0960   48.3180   52.1950 C   0  0  0  0  0  0  0  0  0  0  0  0
    8.6240   47.5050   53.3920 C   0  0  0  0  0  0  0  0  0  0  0  0
    9.9900   46.9050   53.0270 C   0  0  0  0  0  0  0  0  0  0  0  0
    8.8060   48.3480   54.5060 O   0  0  0  0  0  0  0  0  0  0  0  0
    7.6530   46.3600   53.7460 C   0  0  0  0  0  0  0  0  0  0  0  0
    6.9540   46.6500   54.9330 O   0  0  0  0  0  0  0  0  0  0  0  0
    5.6300   46.5330   54.6470 N   0  0  0  0  0  0  0  0  0  0  0  0
    4.9820   45.2580   54.6940 C   0  0  0  0  0  0  0  0  0  0  0  0
    5.6630   44.2210   54.9080 O   0  0  0  0  0  0  0  0  0  0  0  0
    3.5130   45.1570   54.6050 C   0  0  0  0  0  0  0  0  0  0  0  0
    2.7420   45.1640   55.7870 C   0  0  0  0  0  0  0  0  0  0  0  0
    1.3320   45.2720   55.7200 C   0  0  0  0  0  0  0  0  0  0  0  0
    0.5120   45.2560   56.9750 C   0  0  0  0  0  0  0  0  0  0  0  0
    0.6590   46.4880   57.8560 C   0  0  0  0  0  0  0  0  0  0  0  0
   -0.5970   46.2940   57.0260 C   0  0  0  0  0  0  0  0  0  0  0  0
    0.7050   45.3440   54.5070 N   0  0  0  0  0  0  0  0  0  0  0  0
    1.4500   45.3100   53.3770 C   0  0  0  0  0  0  0  0  0  0  0  0
    1.0070   45.3550   52.1480 O   0  0  0  0  0  0  0  0  0  0  0  0
    2.0030   45.2390   51.3150 N   0  0  0  0  0  0  0  0  0  0  0  0
    3.1410   45.1200   52.0440 C   0  0  0  0  0  0  0  0  0  0  0  0
    4.4300   44.7470   51.4360 C   0  0  0  0  0  0  0  0  0  0  0  0
    4.7140   43.4060   51.1260 C   0  0  0  0  0  0  0  0  0  0  0  0
    5.8970   43.0700   50.4600 C   0  0  0  0  0  0  0  0  0  0  0  0
    6.8050   44.0700   50.1010 C   0  0  0  0  0  0  0  0  0  0  0  0
    6.5250   45.4070   50.3960 C   0  0  0  0  0  0  0  0  0  0  0  0
    5.3360   45.7480   51.0500 C   0  0  0  0  0  0  0  0  0  0  0  0
    2.8080   45.1890   53.3920 C   0  0  0  0  0  0  0  0  0  0  0  0
  1  2  1  0
  2  3  1  0
  2  4  1  0
  2  5  1  0
  5  6  1  0
  6  7  1  0
  7  8  1  0
  8  9  2  0
  8 10  1  0
 10 11  2  0
 11 12  1  0
 12 13  1  0
 13 14  1  0
 14 15  1  0
 12 16  2  0
 16 17  1  0
 17 18  1  0
 18 19  1  0
 19 20  2  0
 20 21  1  0
 21 22  2  0
 22 23  1  0
 23 24  2  0
 24 25  1  0
 25 26  2  0
 20 27  1  0
 27 10  1  0
 15 13  1  0
 27 17  2  0
 26 21  1  0
M  END
>  <meeko>  (1) 
{"is_sidechain": [false], "free_energy": -9.452, "intermolecular_energy": -13.044, "internal_energy": -1.065}

$$$$
