ligand_25_conformer_1_docked
     RDKit          3D

 23 24  0  0  0  0  0  0  0  0999 V2000
   10.1250   47.7230   54.9650 N   0  0  0  0  0  0  0  0  0  0  0  0
    9.0460   47.1770   54.2050 C   0  0  0  0  0  0  0  0  0  0  0  0
    9.2540   46.7360   52.8940 C   0  0  0  0  0  0  0  0  0  0  0  0
    8.1840   46.2070   52.1710 C   0  0  0  0  0  0  0  0  0  0  0  0
    6.9080   46.1240   52.7530 C   0  0  0  0  0  0  0  0  0  0  0  0
    5.7590   45.5550   52.0100 C   0  0  0  0  0  0  0  0  0  0  0  0
    5.4880   45.9880   50.8560 O   0  0  0  0  0  0  0  0  0  0  0  0
    4.9660   44.4970   52.5730 N   0  0  0  0  0  0  0  0  0  0  0  0
    3.6440   44.1790   52.1090 C   0  0  0  0  0  0  0  0  0  0  0  0
    2.6400   45.1550   52.1870 C   0  0  0  0  0  0  0  0  0  0  0  0
    1.3470   44.8810   51.7440 C   0  0  0  0  0  0  0  0  0  0  0  0
    1.0440   43.6300   51.2010 C   0  0  0  0  0  0  0  0  0  0  0  0
   -0.5830   43.2870   50.6450 Cl  0  0  0  0  0  0  0  0  0  0  0  0
    2.0410   42.6560   51.0900 C   0  0  0  0  0  0  0  0  0  0  0  0
    3.3530   42.9240   51.5290 C   0  0  0  0  0  0  0  0  0  0  0  0
    4.3870   41.9870   51.3840 O   0  0  0  0  0  0  0  0  0  0  0  0
    4.6430   41.2320   50.2020 C   0  0  0  0  0  0  0  0  0  0  0  0
    5.9450   41.7050   49.5680 C   0  0  0  0  0  0  0  0  0  0  0  0
    5.9200   41.4470   48.2100 F   0  0  0  0  0  0  0  0  0  0  0  0
    6.0980   43.0650   49.7690 F   0  0  0  0  0  0  0  0  0  0  0  0
    7.0140   41.0370   50.1380 F   0  0  0  0  0  0  0  0  0  0  0  0
    6.7510   46.5710   54.0770 C   0  0  0  0  0  0  0  0  0  0  0  0
    7.8090   47.0830   54.7610 N   0  0  0  0  0  0  0  0  0  0  0  0
  1  2  1  0
  2  3  2  0
  3  4  1  0
  4  5  2  0
  5  6  1  0
  6  7  2  0
  6  8  1  0
  8  9  1  0
  9 10  2  0
 10 11  1  0
 11 12  2  0
 12 13  1  0
 12 14  1  0
 14 15  2  0
 15 16  1  0
 16 17  1  0
 17 18  1  0
 18 19  1  0
 18 20  1  0
 18 21  1  0
  5 22  1  0
 22 23  2  0
 23  2  1  0
 15  9  1  0
M  END
>  <meeko>  (1) 
{"is_sidechain": [false], "free_energy": -8.107, "intermolecular_energy": -10.714, "internal_energy": -0.778}

$$$$
