ligand_61_conformer_3_docked
     RDKit          3D

 25 28  0  0  0  0  0  0  0  0999 V2000
    1.3200   45.0180   52.3150 O   0  0  0  0  0  0  0  0  0  0  0  0
    1.5490   44.3250   53.3450 C   0  0  0  0  0  0  0  0  0  0  0  0
    2.5690   43.3120   53.3080 N   0  0  0  0  0  0  0  0  0  0  0  0
    3.6540   43.3070   52.3650 C   0  0  0  0  0  0  0  0  0  0  0  0
    3.7210   42.2940   51.3970 C   0  0  0  0  0  0  0  0  0  0  0  0
    4.7750   42.2610   50.4820 C   0  0  0  0  0  0  0  0  0  0  0  0
    5.7820   43.2270   50.5340 C   0  0  0  0  0  0  0  0  0  0  0  0
    5.7530   44.2310   51.5150 C   0  0  0  0  0  0  0  0  0  0  0  0
    6.8200   45.2550   51.5890 C   0  0  0  0  0  0  0  0  0  0  0  0
    7.5320   45.6960   50.5260 N   0  0  0  0  0  0  0  0  0  0  0  0
    8.3940   46.6280   50.9120 N   0  0  0  0  0  0  0  0  0  0  0  0
    8.2390   46.7780   52.2400 C   0  0  0  0  0  0  0  0  0  0  0  0
    7.2520   45.9570   52.7000 C   0  0  0  0  0  0  0  0  0  0  0  0
    6.8370   45.9560   54.1410 C   0  0  0  0  0  0  0  0  0  0  0  0
    7.1960   47.1850   54.7620 O   0  0  0  0  0  0  0  0  0  0  0  0
    8.5840   47.4580   54.5880 C   0  0  0  0  0  0  0  0  0  0  0  0
    8.9150   47.7810   53.1140 C   0  0  0  0  0  0  0  0  0  0  0  0
    4.6840   44.2650   52.4270 C   0  0  0  0  0  0  0  0  0  0  0  0
    0.7280   44.5330   54.5620 C   0  0  0  0  0  0  0  0  0  0  0  0
   -0.6340   44.1820   54.5720 C   0  0  0  0  0  0  0  0  0  0  0  0
   -1.3870   44.3800   55.6870 N   0  0  0  0  0  0  0  0  0  0  0  0
   -0.8640   44.9220   56.8180 C   0  0  0  0  0  0  0  0  0  0  0  0
    0.4790   45.2980   56.8570 C   0  0  0  0  0  0  0  0  0  0  0  0
    1.0070   45.8610   58.0170 O   0  0  0  0  0  0  0  0  0  0  0  0
    1.2770   45.1040   55.7240 C   0  0  0  0  0  0  0  0  0  0  0  0
  1  2  2  0
  2  3  1  0
  3  4  1  0
  4  5  2  0
  5  6  1  0
  6  7  2  0
  7  8  1  0
  8  9  1  0
  9 10  1  0
 10 11  1  0
 11 12  2  0
 12 13  1  0
 13 14  1  0
 14 15  1  0
 15 16  1  0
 16 17  1  0
  8 18  2  0
  2 19  1  0
 19 20  2  0
 20 21  1  0
 21 22  2  0
 22 23  1  0
 23 24  1  0
 23 25  2  0
 18  4  1  0
 25 19  1  0
 13  9  2  0
 17 12  1  0
M  END
>  <meeko>  (1) 
{"is_sidechain": [false], "free_energy": -9.338, "intermolecular_energy": -11.248, "internal_energy": -0.378}

$$$$
