ligand_58_conformer_2_docked
     RDKit          3D

 23 26  0  0  0  0  0  0  0  0999 V2000
    3.7480   46.3250   50.3660 O   0  0  0  0  0  0  0  0  0  0  0  0
    4.3130   46.2070   51.4870 C   0  0  0  0  0  0  0  0  0  0  0  0
    5.7900   46.1540   51.5440 C   0  0  0  0  0  0  0  0  0  0  0  0
    6.5080   45.4100   50.5760 C   0  0  0  0  0  0  0  0  0  0  0  0
    7.9100   45.3550   50.6110 C   0  0  0  0  0  0  0  0  0  0  0  0
    8.5680   46.0580   51.6140 C   0  0  0  0  0  0  0  0  0  0  0  0
   10.2160   46.1850   51.9000 S   0  0  0  0  0  0  0  0  0  0  0  0
    9.9860   47.2000   53.2360 C   0  0  0  0  0  0  0  0  0  0  0  0
    8.6720   47.4430   53.4640 N   0  0  0  0  0  0  0  0  0  0  0  0
    7.8880   46.8040   52.5590 C   0  0  0  0  0  0  0  0  0  0  0  0
    6.4950   46.8680   52.5380 C   0  0  0  0  0  0  0  0  0  0  0  0
    3.5110   46.1050   52.6800 N   0  0  0  0  0  0  0  0  0  0  0  0
    2.1910   46.7380   52.7370 C   0  0  0  0  0  0  0  0  0  0  0  0
    1.0840   45.6720   52.7260 C   0  0  0  0  0  0  0  0  0  0  0  0
    1.4440   44.3620   53.5250 C   0  0  0  0  0  0  0  0  0  0  0  0
    0.2380   43.9100   54.3970 C   0  0  0  0  0  0  0  0  0  0  0  0
   -0.9420   43.3920   53.5620 C   0  0  0  0  0  0  0  0  0  0  0  0
   -0.5200   42.2210   52.6680 C   0  0  0  0  0  0  0  0  0  0  0  0
   -0.1550   41.1220   53.4640 O   0  0  0  0  0  0  0  0  0  0  0  0
    0.6420   42.6350   51.7550 C   0  0  0  0  0  0  0  0  0  0  0  0
    1.8320   43.2030   52.5520 C   0  0  0  0  0  0  0  0  0  0  0  0
    2.6390   44.6370   54.4850 C   0  0  0  0  0  0  0  0  0  0  0  0
    3.8810   45.1570   53.7410 C   0  0  0  0  0  0  0  0  0  0  0  0
  1  2  2  0
  2  3  1  0
  3  4  2  0
  4  5  1  0
  5  6  2  0
  6  7  1  0
  7  8  1  0
  8  9  2  0
  9 10  1  0
 10 11  2  0
  2 12  1  0
 12 13  1  0
 13 14  1  0
 14 15  1  0
 15 16  1  0
 16 17  1  0
 17 18  1  0
 18 19  1  0
 18 20  1  0
 20 21  1  0
 15 22  1  0
 22 23  1  0
 11  3  1  0
 23 12  1  0
 10  6  1  0
 21 15  1  0
M  END
>  <meeko>  (1) 
{"is_sidechain": [false], "free_energy": -9.273, "intermolecular_energy": -10.086, "internal_energy": -0.131}

$$$$
