ligand_20_conformer_1_docked
     RDKit          3D

 28 32  0  0  0  0  0  0  0  0999 V2000
    4.5710   44.9390   55.5630 O   0  0  0  0  0  0  0  0  0  0  0  0
    3.8340   45.5930   54.7750 C   0  0  0  0  0  0  0  0  0  0  0  0
    4.4110   46.5100   53.8310 N   0  0  0  0  0  0  0  0  0  0  0  0
    5.8300   46.6570   53.6470 C   0  0  0  0  0  0  0  0  0  0  0  0
    6.6260   47.2460   54.5770 N   0  0  0  0  0  0  0  0  0  0  0  0
    7.8540   47.1190   54.0520 C   0  0  0  0  0  0  0  0  0  0  0  0
    9.0560   47.5500   54.6080 C   0  0  0  0  0  0  0  0  0  0  0  0
   10.2390   47.2990   53.8930 C   0  0  0  0  0  0  0  0  0  0  0  0
   10.1920   46.6270   52.6510 C   0  0  0  0  0  0  0  0  0  0  0  0
    8.9620   46.2020   52.1160 C   0  0  0  0  0  0  0  0  0  0  0  0
    7.8010   46.4720   52.8500 C   0  0  0  0  0  0  0  0  0  0  0  0
    6.5120   46.1760   52.5660 N   0  0  0  0  0  0  0  0  0  0  0  0
    5.9560   45.5180   51.3660 C   0  0  0  0  0  0  0  0  0  0  0  0
    5.4220   44.1220   51.6710 C   0  0  0  0  0  0  0  0  0  0  0  0
    5.6630   43.3190   50.4040 C   0  0  0  0  0  0  0  0  0  0  0  0
    6.9060   43.9200   49.7640 C   0  0  0  0  0  0  0  0  0  0  0  0
    6.9850   45.3690   50.2380 C   0  0  0  0  0  0  0  0  0  0  0  0
    2.3740   45.4200   54.8450 C   0  0  0  0  0  0  0  0  0  0  0  0
    1.5030   45.4200   53.7760 C   0  0  0  0  0  0  0  0  0  0  0  0
    0.2980   45.2290   54.2530 O   0  0  0  0  0  0  0  0  0  0  0  0
    0.4100   45.1200   55.5590 C   0  0  0  0  0  0  0  0  0  0  0  0
   -0.7490   44.8730   56.4800 C   0  0  0  0  0  0  0  0  0  0  0  0
   -1.4580   46.1870   56.8380 C   0  0  0  0  0  0  0  0  0  0  0  0
   -2.7300   45.8880   57.6440 C   0  0  0  0  0  0  0  0  0  0  0  0
   -3.6010   45.0400   56.9170 O   0  0  0  0  0  0  0  0  0  0  0  0
   -2.9950   43.7750   56.7220 C   0  0  0  0  0  0  0  0  0  0  0  0
   -1.7460   43.8960   55.8400 C   0  0  0  0  0  0  0  0  0  0  0  0
    1.6850   45.2280   55.9870 N   0  0  0  0  0  0  0  0  0  0  0  0
  1  2  2  0
  2  3  1  0
  3  4  1  0
  4  5  2  0
  5  6  1  0
  6  7  2  0
  7  8  1  0
  8  9  2  0
  9 10  1  0
 10 11  2  0
 11 12  1  0
 12 13  1  0
 13 14  1  0
 14 15  1  0
 15 16  1  0
 16 17  1  0
  2 18  1  0
 18 19  2  0
 19 20  1  0
 20 21  1  0
 21 22  1  0
 22 23  1  0
 23 24  1  0
 24 25  1  0
 25 26  1  0
 26 27  1  0
 21 28  2  0
 12  4  1  0
 17 13  1  0
 28 18  1  0
 11  6  1  0
 27 22  1  0
M  END
>  <meeko>  (1) 
{"is_sidechain": [false], "free_energy": -10.233, "intermolecular_energy": -12.626, "internal_energy": -0.15}

$$$$
