ligand_29_conformer_3_docked
     RDKit          3D

 26 28  0  0  0  0  0  0  0  0999 V2000
   10.5290   47.4040   55.5270 C   0  0  0  0  0  0  0  0  0  0  0  0
    9.8290   47.2370   54.2120 C   0  0  0  0  0  0  0  0  0  0  0  0
   10.5190   46.7290   53.1010 C   0  0  0  0  0  0  0  0  0  0  0  0
    9.8550   46.5410   51.8860 C   0  0  0  0  0  0  0  0  0  0  0  0
    8.4980   46.8540   51.7720 C   0  0  0  0  0  0  0  0  0  0  0  0
    7.7920   47.3550   52.8780 C   0  0  0  0  0  0  0  0  0  0  0  0
    6.3340   47.7190   52.7460 C   0  0  0  0  0  0  0  0  0  0  0  0
    5.4570   46.9090   53.7190 C   0  0  1  0  0  0  0  0  0  0  0  0
    4.5600   47.8500   54.5410 C   0  0  0  0  0  0  0  0  0  0  0  0
    4.2260   48.9880   53.7930 O   0  0  0  0  0  0  0  0  0  0  0  0
    4.6260   45.9500   52.9790 N   0  0  0  0  0  0  0  0  0  0  0  0
    4.3720   44.6180   53.4560 C   0  0  0  0  0  0  0  0  0  0  0  0
    5.0200   44.1670   54.4400 O   0  0  0  0  0  0  0  0  0  0  0  0
    3.3000   43.7860   52.8730 C   0  0  0  0  0  0  0  0  0  0  0  0
    2.0090   43.7070   53.3550 C   0  0  0  0  0  0  0  0  0  0  0  0
    1.2790   42.9620   52.5070 N   0  0  0  0  0  0  0  0  0  0  0  0
    2.0390   42.5480   51.5070 N   0  0  0  0  0  0  0  0  0  0  0  0
    3.2820   43.0310   51.7040 C   0  0  0  0  0  0  0  0  0  0  0  0
    4.4170   42.6770   50.8310 C   0  0  0  0  0  0  0  0  0  0  0  0
    4.4320   41.4560   50.1380 C   0  0  0  0  0  0  0  0  0  0  0  0
    5.4950   41.1430   49.2860 C   0  0  0  0  0  0  0  0  0  0  0  0
    6.5460   42.0490   49.1150 C   0  0  0  0  0  0  0  0  0  0  0  0
    6.5290   43.2750   49.7870 C   0  0  0  0  0  0  0  0  0  0  0  0
    7.8410   44.4160   49.5620 Cl  0  0  0  0  0  0  0  0  0  0  0  0
    5.4620   43.5930   50.6360 C   0  0  0  0  0  0  0  0  0  0  0  0
    8.4610   47.5280   54.1000 C   0  0  0  0  0  0  0  0  0  0  0  0
  1  2  1  0
  2  3  2  0
  3  4  1  0
  4  5  2  0
  5  6  1  0
  6  7  1  0
  8  7  1  6
  8  9  1  0
  9 10  1  0
  8 11  1  0
 11 12  1  0
 12 13  2  0
 12 14  1  0
 14 15  2  0
 15 16  1  0
 16 17  1  0
 17 18  2  0
 18 19  1  0
 19 20  2  0
 20 21  1  0
 21 22  2  0
 22 23  1  0
 23 24  1  0
 23 25  2  0
  6 26  2  0
 26  2  1  0
 18 14  1  0
 25 19  1  0
M  END
>  <meeko>  (1) 
{"is_sidechain": [false], "free_energy": -9.625, "intermolecular_energy": -13.283, "internal_energy": -0.749}

$$$$
