ligand_96_conformer_1_docked
     RDKit          3D

 22 24  0  0  0  0  0  0  0  0999 V2000
    9.9880   47.1770   54.4840 C   0  0  0  0  0  0  0  0  0  0  0  0
    8.7960   47.0390   53.5270 C   0  0  0  0  0  0  0  0  0  0  0  0
    9.2260   47.2840   52.0640 C   0  0  0  0  0  0  0  0  0  0  0  0
    8.9490   46.1050   51.1750 C   0  0  0  0  0  0  0  0  0  0  0  0
    9.8740   45.2860   50.9270 O   0  0  0  0  0  0  0  0  0  0  0  0
    7.6320   45.8920   50.6480 N   0  0  0  0  0  0  0  0  0  0  0  0
    7.2400   44.6390   50.0070 C   0  0  0  0  0  0  0  0  0  0  0  0
    5.8730   44.2280   50.4790 C   0  0  0  0  0  0  0  0  0  0  0  0
    4.9590   45.2000   50.9070 C   0  0  0  0  0  0  0  0  0  0  0  0
    3.7060   44.8230   51.3980 C   0  0  0  0  0  0  0  0  0  0  0  0
    3.3440   43.4660   51.4780 C   0  0  0  0  0  0  0  0  0  0  0  0
    2.0470   43.0950   51.9920 N   0  0  0  0  0  0  0  0  0  0  0  0
    0.8740   43.0400   51.3320 C   0  0  0  0  0  0  0  0  0  0  0  0
   -0.1260   42.6430   52.1430 N   0  0  0  0  0  0  0  0  0  0  0  0
    0.5060   42.4630   53.3210 C   0  0  0  0  0  0  0  0  0  0  0  0
    1.8220   42.7310   53.2420 N   0  0  0  0  0  0  0  0  0  0  0  0
    4.2690   42.4950   51.0470 C   0  0  0  0  0  0  0  0  0  0  0  0
    5.5220   42.8730   50.5570 C   0  0  0  0  0  0  0  0  0  0  0  0
    7.8100   47.9840   53.8890 O   0  0  0  0  0  0  0  0  0  0  0  0
    6.7250   47.2480   54.3560 C   0  0  0  0  0  0  0  0  0  0  0  0
    6.9370   45.8440   53.8850 C   0  0  0  0  0  0  0  0  0  0  0  0
    8.2990   45.7210   53.6280 O   0  0  0  0  0  0  0  0  0  0  0  0
  1  2  1  0
  2  3  1  0
  3  4  1  0
  4  5  2  0
  4  6  1  0
  6  7  1  0
  7  8  1  0
  8  9  2  0
  9 10  1  0
 10 11  2  0
 11 12  1  0
 12 13  1  0
 13 14  2  0
 14 15  1  0
 15 16  2  0
 11 17  1  0
 17 18  2  0
  2 19  1  0
 19 20  1  0
 20 21  1  0
 21 22  1  0
 22  2  1  0
 18  8  1  0
 16 12  1  0
M  END
>  <meeko>  (1) 
{"is_sidechain": [false], "free_energy": -7.696, "intermolecular_energy": -9.945, "internal_energy": -0.657}

$$$$
