ligand_39_conformer_5_docked
     RDKit          3D

 26 29  0  0  0  0  0  0  0  0999 V2000
    6.3530   43.2900   50.1250 C   0  0  0  0  0  0  0  0  0  0  0  0
    7.3000   44.3850   49.9200 N   0  0  0  0  0  0  0  0  0  0  0  0
    8.4340   44.1660   49.0220 C   0  0  0  0  0  0  0  0  0  0  0  0
    7.3490   45.4680   50.8650 C   0  0  0  0  0  0  0  0  0  0  0  0
    8.5590   46.1500   51.1120 C   0  0  0  0  0  0  0  0  0  0  0  0
    8.6050   47.2190   52.0280 C   0  0  0  0  0  0  0  0  0  0  0  0
    7.4500   47.6170   52.7130 C   0  0  0  0  0  0  0  0  0  0  0  0
    6.2650   46.9300   52.4630 C   0  0  0  0  0  0  0  0  0  0  0  0
    4.7600   47.1780   53.1610 S   0  0  0  0  0  0  0  0  0  0  0  0
    3.9940   45.9290   52.3150 C   0  0  0  0  0  0  0  0  0  0  0  0
    2.5770   45.5560   52.4770 C   0  0  0  0  0  0  0  0  0  0  0  0
    1.6930   46.4360   52.3050 O   0  0  0  0  0  0  0  0  0  0  0  0
    2.2110   44.2000   52.7990 N   0  0  0  0  0  0  0  0  0  0  0  0
    0.8980   43.7550   53.3200 C   0  0  1  0  0  0  0  0  0  0  0  0
    0.5610   44.5240   54.6160 C   0  0  0  0  0  0  0  0  0  0  0  0
    1.5330   44.8110   55.6040 C   0  0  0  0  0  0  0  0  0  0  0  0
    1.1770   45.4530   56.7940 C   0  0  0  0  0  0  0  0  0  0  0  0
   -0.1520   45.7890   57.0400 C   0  0  0  0  0  0  0  0  0  0  0  0
   -1.1360   45.4680   56.1060 C   0  0  0  0  0  0  0  0  0  0  0  0
   -0.7880   44.8260   54.9140 C   0  0  0  0  0  0  0  0  0  0  0  0
   -0.2400   43.9920   52.3240 C   0  0  0  0  0  0  0  0  0  0  0  0
   -1.1780   42.8180   52.5430 C   0  0  0  0  0  0  0  0  0  0  0  0
   -0.3930   41.6980   53.0670 N   0  0  0  0  0  0  0  0  0  0  0  0
    0.9050   42.2240   53.5010 C   0  0  0  0  0  0  0  0  0  0  0  0
    4.9220   45.2990   51.4830 C   0  0  0  0  0  0  0  0  0  0  0  0
    6.1980   45.8750   51.5640 C   0  0  0  0  0  0  0  0  0  0  0  0
  1  2  1  0
  2  3  1  0
  2  4  1  0
  4  5  2  0
  5  6  1  0
  6  7  2  0
  7  8  1  0
  8  9  1  0
  9 10  1  0
 10 11  1  0
 11 12  2  0
 11 13  1  0
 14 13  1  6
 14 15  1  0
 15 16  2  0
 16 17  1  0
 17 18  2  0
 18 19  1  0
 19 20  2  0
 14 21  1  0
 21 22  1  0
 22 23  1  0
 23 24  1  0
 10 25  2  0
 25 26  1  0
 26  4  1  0
 26  8  2  0
 24 14  1  0
 20 15  1  0
M  END
>  <meeko>  (1) 
{"is_sidechain": [false], "free_energy": -8.886, "intermolecular_energy": -10.964, "internal_energy": 0.852}

$$$$
