ligand_38_conformer_4_docked
     RDKit          3D

 32 37  0  0  0  0  0  0  0  0999 V2000
   -1.7050   42.6980   51.7670 C   0  0  0  0  0  0  0  0  0  0  0  0
   -1.2110   43.6150   52.7860 N   0  0  0  0  0  0  0  0  0  0  0  0
   -1.7970   43.8240   54.0820 C   0  0  0  0  0  0  0  0  0  0  0  0
   -2.9840   43.5320   54.3830 O   0  0  0  0  0  0  0  0  0  0  0  0
   -0.7970   44.3800   54.9890 C   0  0  0  0  0  0  0  0  0  0  0  0
   -0.8130   44.7720   56.3260 C   0  0  0  0  0  0  0  0  0  0  0  0
    0.3950   45.2460   56.8840 C   0  0  0  0  0  0  0  0  0  0  0  0
    1.5810   45.3090   56.1080 C   0  0  0  0  0  0  0  0  0  0  0  0
    1.5620   44.9100   54.7490 C   0  0  0  0  0  0  0  0  0  0  0  0
    2.6580   44.9340   53.8460 C   0  0  0  0  0  0  0  0  0  0  0  0
    4.2170   45.6260   54.3120 S   0  0  0  0  0  0  0  0  0  0  0  0
    4.0360   47.0920   54.5910 O   0  0  0  0  0  0  0  0  0  0  0  0
    4.7420   44.9500   55.5500 O   0  0  0  0  0  0  0  0  0  0  0  0
    5.3470   45.3980   53.0020 N   0  0  0  0  0  0  0  0  0  0  0  0
    5.4400   46.5920   52.1520 C   0  0  0  0  0  0  0  0  0  0  0  0
    6.8980   46.8240   51.9780 C   0  0  0  0  0  0  0  0  0  0  0  0
    7.4960   47.9410   52.5860 C   0  0  0  0  0  0  0  0  0  0  0  0
    8.8840   48.0490   52.6570 C   0  0  0  0  0  0  0  0  0  0  0  0
    9.6860   47.0350   52.1420 C   0  0  0  0  0  0  0  0  0  0  0  0
    9.1050   45.9210   51.5340 C   0  0  0  0  0  0  0  0  0  0  0  0
    7.7020   45.8000   51.4240 C   0  0  0  0  0  0  0  0  0  0  0  0
    7.1190   44.6360   50.6680 C   0  0  0  0  0  0  0  0  0  0  0  0
    7.7870   44.2530   49.4820 C   0  0  0  0  0  0  0  0  0  0  0  0
    7.3450   43.1810   48.7110 C   0  0  0  0  0  0  0  0  0  0  0  0
    6.2190   42.4660   49.0920 C   0  0  0  0  0  0  0  0  0  0  0  0
    5.5180   42.8320   50.2380 C   0  0  0  0  0  0  0  0  0  0  0  0
    5.9290   43.9190   51.0370 C   0  0  0  0  0  0  0  0  0  0  0  0
    5.0230   44.1910   52.2360 C   0  0  0  0  0  0  0  0  0  0  0  0
    2.4720   44.4600   52.5160 C   0  0  0  0  0  0  0  0  0  0  0  0
    1.2150   43.9870   52.0760 C   0  0  0  0  0  0  0  0  0  0  0  0
    0.1530   44.0100   52.9800 C   0  0  0  0  0  0  0  0  0  0  0  0
    0.3490   44.4550   54.2550 C   0  0  0  0  0  0  0  0  0  0  0  0
  1  2  1  0
  2  3  1  0
  3  4  2  0
  3  5  1  0
  5  6  2  0
  6  7  1  0
  7  8  2  0
  8  9  1  0
  9 10  2  0
 10 11  1  0
 11 12  2  0
 11 13  2  0
 11 14  1  0
 14 15  1  0
 15 16  1  0
 16 17  2  0
 17 18  1  0
 18 19  2  0
 19 20  1  0
 20 21  2  0
 21 22  1  0
 22 23  2  0
 23 24  1  0
 24 25  2  0
 25 26  1  0
 26 27  2  0
 27 28  1  0
 10 29  1  0
 29 30  2  0
 30 31  1  0
 31 32  2  0
 31  2  1  0
 32  5  1  0
 32  9  1  0
 28 14  1  0
 21 16  1  0
 27 22  1  0
M  END
>  <meeko>  (1) 
{"is_sidechain": [false], "free_energy": -12.37, "intermolecular_energy": -13.817, "internal_energy": 0.504}

$$$$
