ligand_33_conformer_3_docked
     RDKit          3D

 24 27  0  0  0  0  0  0  0  0999 V2000
    8.9570   48.1740   54.9270 C   0  0  0  0  0  0  0  0  0  0  0  0
    8.7040   46.8300   54.2050 C   0  0  2  0  0  0  0  0  0  0  0  0
    9.9120   46.4500   53.3070 C   0  0  0  0  0  0  0  0  0  0  0  0
    9.6240   46.6430   51.8060 C   0  0  0  0  0  0  0  0  0  0  0  0
    8.7770   47.8940   51.5550 C   0  0  0  0  0  0  0  0  0  0  0  0
    7.4450   47.8510   52.3370 C   0  0  0  0  0  0  0  0  0  0  0  0
    7.4580   46.8150   53.3940 N   0  0  0  0  0  0  0  0  0  0  0  0
    6.2020   46.7750   54.1720 C   0  0  0  0  0  0  0  0  0  0  0  0
    5.0650   47.5200   53.4460 C   0  0  0  0  0  0  0  0  0  0  0  0
    3.6780   46.8290   53.5450 C   0  0  0  0  0  0  0  0  0  0  0  0
    2.9370   46.7410   52.1930 C   0  0  0  0  0  0  0  0  0  0  0  0
    3.6730   45.8200   51.2130 C   0  0  0  0  0  0  0  0  0  0  0  0
    4.1250   44.5850   51.8720 N   0  0  0  0  0  0  0  0  0  0  0  0
    4.7200   43.5530   51.0720 C   0  0  0  0  0  0  0  0  0  0  0  0
    4.1040   42.3390   50.9350 N   0  0  0  0  0  0  0  0  0  0  0  0
    4.6460   41.3400   50.1690 C   0  0  0  0  0  0  0  0  0  0  0  0
    5.8340   41.5290   49.5200 N   0  0  0  0  0  0  0  0  0  0  0  0
    6.4470   42.7300   49.6550 C   0  0  0  0  0  0  0  0  0  0  0  0
    7.6330   43.0920   49.1470 N   0  0  0  0  0  0  0  0  0  0  0  0
    7.9000   44.3220   49.5750 N   0  0  0  0  0  0  0  0  0  0  0  0
    6.8730   44.7400   50.3560 C   0  0  0  0  0  0  0  0  0  0  0  0
    5.9320   43.7310   50.4090 C   0  0  0  0  0  0  0  0  0  0  0  0
    3.6260   44.2470   53.2100 C   0  0  0  0  0  0  0  0  0  0  0  0
    3.8110   45.4190   54.1930 C   0  0  0  0  0  0  0  0  0  0  0  0
  2  1  1  6
  2  3  1  0
  3  4  1  0
  4  5  1  0
  5  6  1  0
  6  7  1  0
  7  8  1  0
  8  9  1  0
  9 10  1  0
 10 11  1  0
 11 12  1  0
 12 13  1  0
 13 14  1  0
 14 15  2  0
 15 16  1  0
 16 17  2  0
 17 18  1  0
 18 19  1  0
 19 20  1  0
 20 21  2  0
 21 22  1  0
 13 23  1  0
 23 24  1  0
  7  2  1  0
 24 10  1  0
 22 14  1  0
 22 18  2  0
M  END
>  <meeko>  (1) 
{"is_sidechain": [false], "free_energy": -9.731, "intermolecular_energy": -12.007, "internal_energy": -1.115}

$$$$
