ligand_16_conformer_1_docked
     RDKit          3D

 26 28  0  0  0  0  0  0  0  0999 V2000
    0.4320   45.7700   52.3270 O   0  0  0  0  0  0  0  0  0  0  0  0
    1.3500   45.1300   52.9110 C   0  0  0  0  0  0  0  0  0  0  0  0
    1.0250   44.2830   54.0270 N   0  0  0  0  0  0  0  0  0  0  0  0
   -0.1630   44.4310   54.8240 C   0  0  0  0  0  0  0  0  0  0  0  0
   -1.3930   43.8910   54.4100 C   0  0  0  0  0  0  0  0  0  0  0  0
   -2.5380   44.0670   55.1890 C   0  0  0  0  0  0  0  0  0  0  0  0
   -2.4700   44.7910   56.3810 C   0  0  0  0  0  0  0  0  0  0  0  0
   -1.2620   45.3600   56.8010 C   0  0  0  0  0  0  0  0  0  0  0  0
   -1.2560   46.0860   58.0030 O   0  0  0  0  0  0  0  0  0  0  0  0
   -0.8420   47.4450   58.1530 C   0  0  0  0  0  0  0  0  0  0  0  0
    0.3380   47.5460   59.1150 C   0  0  0  0  0  0  0  0  0  0  0  0
    1.3880   46.7790   58.6450 F   0  0  0  0  0  0  0  0  0  0  0  0
   -0.1080   45.1770   56.0120 C   0  0  0  0  0  0  0  0  0  0  0  0
    2.7400   45.2210   52.4050 C   0  0  0  0  0  0  0  0  0  0  0  0
    3.0350   46.0160   51.2830 C   0  0  0  0  0  0  0  0  0  0  0  0
    4.3450   46.1100   50.8040 C   0  0  0  0  0  0  0  0  0  0  0  0
    5.3840   45.4070   51.4270 C   0  0  0  0  0  0  0  0  0  0  0  0
    6.7250   45.5400   50.9290 N   0  0  0  0  0  0  0  0  0  0  0  0
    7.8240   46.0550   51.6950 C   0  0  0  0  0  0  0  0  0  0  0  0
    9.1100   45.8260   51.3110 N   0  0  0  0  0  0  0  0  0  0  0  0
   10.1540   46.3360   52.0160 C   0  0  0  0  0  0  0  0  0  0  0  0
    9.9140   47.1160   53.1460 C   0  0  0  0  0  0  0  0  0  0  0  0
    8.5920   47.3540   53.5200 C   0  0  0  0  0  0  0  0  0  0  0  0
    7.5760   46.8260   52.7890 N   0  0  0  0  0  0  0  0  0  0  0  0
    5.0990   44.6400   52.5700 C   0  0  0  0  0  0  0  0  0  0  0  0
    3.7910   44.5440   53.0510 C   0  0  0  0  0  0  0  0  0  0  0  0
  1  2  2  0
  2  3  1  0
  3  4  1  0
  4  5  2  0
  5  6  1  0
  6  7  2  0
  7  8  1  0
  8  9  1  0
  9 10  1  0
 10 11  1  0
 11 12  1  0
  8 13  2  0
  2 14  1  0
 14 15  2  0
 15 16  1  0
 16 17  2  0
 17 18  1  0
 18 19  1  0
 19 20  2  0
 20 21  1  0
 21 22  2  0
 22 23  1  0
 23 24  2  0
 17 25  1  0
 25 26  2  0
 13  4  1  0
 26 14  1  0
 24 19  1  0
M  END
>  <meeko>  (1) 
{"is_sidechain": [false], "free_energy": -7.768, "intermolecular_energy": -10.946, "internal_energy": -0.621}

$$$$
