ligand_73_conformer_3_docked
     RDKit          3D

 25 27  0  0  0  0  0  0  0  0999 V2000
    2.5770   42.8680   52.5250 C   0  0  0  0  0  0  0  0  0  0  0  0
    3.3010   44.1140   52.7530 N   0  0  0  0  0  0  0  0  0  0  0  0
    4.6160   44.2170   52.6550 N   0  0  0  0  0  0  0  0  0  0  0  0
    4.9540   45.4920   52.9480 C   0  0  0  0  0  0  0  0  0  0  0  0
    6.3520   45.9890   52.9550 C   0  0  0  0  0  0  0  0  0  0  0  0
    7.1350   45.9870   51.7840 C   0  0  0  0  0  0  0  0  0  0  0  0
    8.4510   46.4580   51.8120 C   0  0  0  0  0  0  0  0  0  0  0  0
    9.0010   46.9360   53.0030 C   0  0  0  0  0  0  0  0  0  0  0  0
   10.2770   47.3920   53.0260 F   0  0  0  0  0  0  0  0  0  0  0  0
    8.2360   46.9420   54.1710 C   0  0  0  0  0  0  0  0  0  0  0  0
    6.9190   46.4720   54.1500 C   0  0  0  0  0  0  0  0  0  0  0  0
    3.8100   46.2150   53.2480 C   0  0  0  0  0  0  0  0  0  0  0  0
    2.7770   45.3080   53.1060 C   0  0  0  0  0  0  0  0  0  0  0  0
    1.3520   45.5730   53.3840 C   0  0  0  0  0  0  0  0  0  0  0  0
    0.5970   45.9230   52.4370 O   0  0  0  0  0  0  0  0  0  0  0  0
    0.8050   45.4190   54.7050 N   0  0  0  0  0  0  0  0  0  0  0  0
    1.6310   45.1320   55.8670 C   0  0  0  0  0  0  0  0  0  0  0  0
    0.6650   44.6520   56.9450 C   0  0  0  0  0  0  0  0  0  0  0  0
   -0.7220   45.1720   56.5120 C   0  0  1  0  0  0  0  0  0  0  0  0
   -1.7740   44.2190   56.9180 C   0  0  0  0  0  0  0  0  0  0  0  0
   -2.5980   43.4710   57.2360 N   0  0  0  0  0  0  0  0  0  0  0  0
   -1.0340   46.5440   57.0940 C   0  0  0  0  0  0  0  0  0  0  0  0
   -1.9550   47.4160   56.4350 N   0  0  0  0  0  0  0  0  0  0  0  0
   -0.4460   46.9520   58.1320 O   0  0  0  0  0  0  0  0  0  0  0  0
   -0.6170   45.2650   54.9820 C   0  0  0  0  0  0  0  0  0  0  0  0
  1  2  1  0
  2  3  1  0
  3  4  2  0
  4  5  1  0
  5  6  2  0
  6  7  1  0
  7  8  2  0
  8  9  1  0
  8 10  1  0
 10 11  2  0
  4 12  1  0
 12 13  2  0
 13 14  1  0
 14 15  2  0
 14 16  1  0
 16 17  1  0
 17 18  1  0
 18 19  1  0
 19 20  1  6
 20 21  3  0
 19 22  1  0
 22 23  1  0
 22 24  2  0
 19 25  1  0
 13  2  1  0
 25 16  1  0
 11  5  1  0
M  END
>  <meeko>  (1) 
{"is_sidechain": [false], "free_energy": -8.349, "intermolecular_energy": -10.302, "internal_energy": -0.733}

$$$$
