ligand_99_conformer_5_docked
     RDKit          3D

 22 23  0  0  0  0  0  0  0  0999 V2000
   10.3280   46.0060   51.3410 C   0  0  0  0  0  0  0  0  0  0  0  0
    9.4250   46.4410   52.4660 C   0  0  0  0  0  0  0  0  0  0  0  0
    9.9930   47.0780   53.5830 C   0  0  0  0  0  0  0  0  0  0  0  0
    9.1950   47.4870   54.6490 C   0  0  0  0  0  0  0  0  0  0  0  0
    7.8210   47.2650   54.6200 C   0  0  0  0  0  0  0  0  0  0  0  0
    7.2260   46.6440   53.5140 C   0  0  0  0  0  0  0  0  0  0  0  0
    5.8110   46.4050   53.5330 N   0  0  0  0  0  0  0  0  0  0  0  0
    4.9140   47.4830   53.1150 C   0  0  0  0  0  0  0  0  0  0  0  0
    5.3190   45.1190   53.9670 C   0  0  0  0  0  0  0  0  0  0  0  0
    5.8330   44.5700   54.9790 O   0  0  0  0  0  0  0  0  0  0  0  0
    4.2070   44.4310   53.2800 C   0  0  0  0  0  0  0  0  0  0  0  0
    4.3320   43.5640   52.2160 C   0  0  0  0  0  0  0  0  0  0  0  0
    3.0400   43.1600   51.9430 C   0  0  0  0  0  0  0  0  0  0  0  0
    2.6900   42.1810   50.8620 C   0  0  0  0  0  0  0  0  0  0  0  0
    2.1940   43.7420   52.8380 N   0  0  0  0  0  0  0  0  0  0  0  0
    0.7120   43.6760   52.9230 C   0  0  0  0  0  0  0  0  0  0  0  0
    0.2280   42.2410   53.2280 C   0  0  0  0  0  0  0  0  0  0  0  0
    0.0980   44.1780   51.6040 C   0  0  0  0  0  0  0  0  0  0  0  0
    0.2120   44.5900   54.0680 C   0  0  0  0  0  0  0  0  0  0  0  0
    2.9130   44.5220   53.6350 N   0  0  0  0  0  0  0  0  0  0  0  0
    8.0200   46.2500   52.4100 C   0  0  0  0  0  0  0  0  0  0  0  0
    7.3800   45.5770   51.2170 C   0  0  0  0  0  0  0  0  0  0  0  0
  1  2  1  0
  2  3  2  0
  3  4  1  0
  4  5  2  0
  5  6  1  0
  6  7  1  0
  7  8  1  0
  7  9  1  0
  9 10  2  0
  9 11  1  0
 11 12  1  0
 12 13  2  0
 13 14  1  0
 13 15  1  0
 15 16  1  0
 16 17  1  0
 16 18  1  0
 16 19  1  0
 15 20  1  0
  6 21  2  0
 21 22  1  0
 21  2  1  0
 20 11  2  0
M  END
>  <meeko>  (1) 
{"is_sidechain": [false], "free_energy": -8.44, "intermolecular_energy": -10.413, "internal_energy": -0.494}

$$$$
