ligand_59_conformer_2_docked
     RDKit          3D

 23 25  0  0  0  0  0  0  0  0999 V2000
   11.0740   47.5540   56.3860 C   0  0  0  0  0  0  0  0  0  0  0  0
    9.8960   48.1110   55.8120 O   0  0  0  0  0  0  0  0  0  0  0  0
    9.2520   47.5420   54.7120 C   0  0  0  0  0  0  0  0  0  0  0  0
    9.9920   46.9690   53.7280 N   0  0  0  0  0  0  0  0  0  0  0  0
    9.4010   46.4120   52.6380 C   0  0  0  0  0  0  0  0  0  0  0  0
   10.2450   45.8000   51.5650 C   0  0  0  0  0  0  0  0  0  0  0  0
    8.0080   46.4190   52.5250 C   0  0  0  0  0  0  0  0  0  0  0  0
    7.2510   46.9980   53.5540 C   0  0  0  0  0  0  0  0  0  0  0  0
    5.8130   47.0540   53.4840 N   0  0  0  0  0  0  0  0  0  0  0  0
    5.1520   46.7740   52.2030 C   0  0  0  0  0  0  0  0  0  0  0  0
    3.6250   46.9080   52.3010 C   0  0  0  0  0  0  0  0  0  0  0  0
    3.1190   46.2740   53.5310 N   0  0  0  0  0  0  0  0  0  0  0  0
    1.8240   45.6290   53.5120 C   0  0  0  0  0  0  0  0  0  0  0  0
    1.0420   45.8360   52.5430 O   0  0  0  0  0  0  0  0  0  0  0  0
    1.3520   44.7340   54.6420 C   0  0  0  0  0  0  0  0  0  0  0  0
    0.4530   45.5400   55.6140 C   0  0  0  0  0  0  0  0  0  0  0  0
   -0.4670   44.6160   56.4170 C   0  0  0  0  0  0  0  0  0  0  0  0
   -1.4320   43.8360   55.5010 C   0  0  0  0  0  0  0  0  0  0  0  0
   -0.8730   43.5900   54.0850 C   0  0  0  0  0  0  0  0  0  0  0  0
    0.6560   43.4580   54.0960 C   0  0  0  0  0  0  0  0  0  0  0  0
    3.8360   46.4760   54.8030 C   0  0  0  0  0  0  0  0  0  0  0  0
    5.0040   47.4520   54.6430 C   0  0  0  0  0  0  0  0  0  0  0  0
    7.8940   47.5560   54.6140 N   0  0  0  0  0  0  0  0  0  0  0  0
  1  2  1  0
  2  3  1  0
  3  4  2  0
  4  5  1  0
  5  6  1  0
  5  7  2  0
  7  8  1  0
  8  9  1  0
  9 10  1  0
 10 11  1  0
 11 12  1  0
 12 13  1  0
 13 14  2  0
 13 15  1  0
 15 16  1  0
 16 17  1  0
 17 18  1  0
 18 19  1  0
 19 20  1  0
 12 21  1  0
 21 22  1  0
  8 23  2  0
 23  3  1  0
 22  9  1  0
 20 15  1  0
M  END
>  <meeko>  (1) 
{"is_sidechain": [false], "free_energy": -8.907, "intermolecular_energy": -10.469, "internal_energy": -0.337}

$$$$
