ligand_15_conformer_5_docked
     RDKit          3D

 26 28  0  0  0  0  0  0  0  0999 V2000
   10.9030   47.5660   56.1250 C   0  0  0  0  0  0  0  0  0  0  0  0
    9.6510   47.8510   55.5080 O   0  0  0  0  0  0  0  0  0  0  0  0
    9.2690   47.3870   54.2410 C   0  0  0  0  0  0  0  0  0  0  0  0
   10.2660   46.9220   53.3760 C   0  0  0  0  0  0  0  0  0  0  0  0
    9.9370   46.4410   52.1060 C   0  0  0  0  0  0  0  0  0  0  0  0
    8.6050   46.4250   51.6880 C   0  0  0  0  0  0  0  0  0  0  0  0
    7.5900   46.8930   52.5370 C   0  0  0  0  0  0  0  0  0  0  0  0
    6.1450   46.8110   52.1130 C   0  0  0  0  0  0  0  0  0  0  0  0
    5.4180   45.6400   52.7870 C   0  0  0  0  0  0  0  0  0  0  0  0
    4.8420   44.6930   51.7730 C   0  0  0  0  0  0  0  0  0  0  0  0
    3.8770   45.0720   51.0560 O   0  0  0  0  0  0  0  0  0  0  0  0
    5.4600   43.4140   51.5580 N   0  0  0  0  0  0  0  0  0  0  0  0
    5.0550   42.4920   50.5320 C   0  0  0  0  0  0  0  0  0  0  0  0
    5.8440   42.3580   49.3810 C   0  0  0  0  0  0  0  0  0  0  0  0
    5.4800   41.4590   48.3740 C   0  0  0  0  0  0  0  0  0  0  0  0
    4.3190   40.6780   48.5060 C   0  0  0  0  0  0  0  0  0  0  0  0
    3.9390   39.7280   47.4970 N   0  0  0  0  0  0  0  0  0  0  0  0
    3.2360   40.0670   46.2940 C   0  0  0  0  0  0  0  0  0  0  0  0
    3.5480   39.4330   45.1310 N   0  0  0  0  0  0  0  0  0  0  0  0
    2.8820   39.7080   43.9800 C   0  0  0  0  0  0  0  0  0  0  0  0
    1.8520   40.6470   43.9800 C   0  0  0  0  0  0  0  0  0  0  0  0
    1.5330   41.2800   45.1790 C   0  0  0  0  0  0  0  0  0  0  0  0
    2.2220   40.9780   46.3100 N   0  0  0  0  0  0  0  0  0  0  0  0
    3.5580   40.7800   49.6790 C   0  0  0  0  0  0  0  0  0  0  0  0
    3.9190   41.6800   50.6840 C   0  0  0  0  0  0  0  0  0  0  0  0
    7.9260   47.3680   53.8160 C   0  0  0  0  0  0  0  0  0  0  0  0
  1  2  1  0
  2  3  1  0
  3  4  2  0
  4  5  1  0
  5  6  2  0
  6  7  1  0
  7  8  1  0
  8  9  1  0
  9 10  1  0
 10 11  2  0
 10 12  1  0
 12 13  1  0
 13 14  2  0
 14 15  1  0
 15 16  2  0
 16 17  1  0
 17 18  1  0
 18 19  2  0
 19 20  1  0
 20 21  2  0
 21 22  1  0
 22 23  2  0
 16 24  1  0
 24 25  2  0
  7 26  2  0
 26  3  1  0
 25 13  1  0
 23 18  1  0
M  END
>  <meeko>  (1) 
{"is_sidechain": [false], "free_energy": -8.573, "intermolecular_energy": -12.082, "internal_energy": -0.672}

$$$$
