ligand_70_conformer_1_docked
     RDKit          3D

 27 29  0  0  0  0  0  0  0  0999 V2000
    8.2760   43.6740   49.1560 C   0  0  0  0  0  0  0  0  0  0  0  0
    6.8450   43.6460   49.5680 C   0  0  0  0  0  0  0  0  0  0  0  0
    6.3020   44.6940   50.0110 O   0  0  0  0  0  0  0  0  0  0  0  0
    6.1090   42.4650   49.4200 O   0  0  0  0  0  0  0  0  0  0  0  0
    5.6790   41.6670   50.5210 C   0  0  0  0  0  0  0  0  0  0  0  0
    4.1810   41.5230   50.5250 C   0  0  0  0  0  0  0  0  0  0  0  0
    3.6770   40.5280   49.9350 O   0  0  0  0  0  0  0  0  0  0  0  0
    3.3130   42.4850   51.1690 N   0  0  0  0  0  0  0  0  0  0  0  0
    1.8580   42.2370   51.2770 C   0  0  0  0  0  0  0  0  0  0  0  0
    1.0610   43.5470   51.2530 C   0  0  0  0  0  0  0  0  0  0  0  0
    1.6450   44.4860   52.1960 N   0  0  0  0  0  0  0  0  0  0  0  0
    0.9970   45.4670   52.8040 N   0  0  0  0  0  0  0  0  0  0  0  0
    1.9020   46.1520   53.5350 C   0  0  0  0  0  0  0  0  0  0  0  0
    3.1530   45.5840   53.3640 C   0  0  0  0  0  0  0  0  0  0  0  0
    4.6620   46.1110   54.0900 S   0  0  2  0  0  6  0  0  0  0  0  0
    5.2150   44.8890   55.2630 C   0  0  0  0  0  0  0  0  0  0  0  0
    4.4460   47.4310   54.7770 O   0  0  0  0  0  0  0  0  0  0  0  0
    5.7390   46.2860   52.9560 N   0  0  0  0  0  0  0  0  0  0  0  0
    7.0490   46.8190   53.1850 C   0  0  0  0  0  0  0  0  0  0  0  0
    7.3330   47.3880   54.2740 O   0  0  0  0  0  0  0  0  0  0  0  0
    8.1110   46.6620   52.1380 C   0  0  1  0  0  0  0  0  0  0  0  0
    8.8340   47.9580   51.7530 C   0  0  0  0  0  0  0  0  0  0  0  0
    9.5610   46.8970   52.5730 C   0  0  0  0  0  0  0  0  0  0  0  0
    9.8660   47.2860   54.0290 C   0  0  0  0  0  0  0  0  0  0  0  0
   10.6270   46.0980   51.8180 C   0  0  0  0  0  0  0  0  0  0  0  0
    2.9480   44.5300   52.5010 C   0  0  0  0  0  0  0  0  0  0  0  0
    3.9550   43.5890   51.9140 C   0  0  0  0  0  0  0  0  0  0  0  0
  1  2  1  0
  2  3  2  0
  2  4  1  0
  4  5  1  0
  5  6  1  0
  6  7  2  0
  6  8  1  0
  8  9  1  0
  9 10  1  0
 10 11  1  0
 11 12  1  0
 12 13  2  0
 13 14  1  0
 14 15  1  0
 15 16  1  1
 15 17  2  0
 15 18  2  0
 18 19  1  0
 19 20  2  0
 21 19  1  1
 21 22  1  0
 22 23  1  0
 23 24  1  0
 23 25  1  0
 14 26  2  0
 26 27  1  0
 27  8  1  0
 26 11  1  0
 23 21  1  0
M  END
>  <meeko>  (1) 
{"is_sidechain": [false], "free_energy": -8.99, "intermolecular_energy": -12.669, "internal_energy": 0.417}

$$$$
