ligand_49_conformer_3_docked
     RDKit          3D

 27 30  0  0  0  0  0  0  0  0999 V2000
    0.0830   44.8230   51.9200 O   0  0  0  0  0  0  0  0  0  0  0  0
    1.3140   44.6620   51.7010 C   0  0  0  0  0  0  0  0  0  0  0  0
    1.7940   43.3200   51.2180 C   0  0  0  0  0  0  0  0  0  0  0  0
    3.1750   42.7120   52.2460 S   0  0  0  0  0  0  0  0  0  0  0  0
    4.2140   42.2460   50.8570 C   0  0  0  0  0  0  0  0  0  0  0  0
    3.8290   41.1900   50.0210 C   0  0  0  0  0  0  0  0  0  0  0  0
    4.6350   40.8220   48.9400 C   0  0  0  0  0  0  0  0  0  0  0  0
    5.8290   41.5060   48.6930 C   0  0  0  0  0  0  0  0  0  0  0  0
    6.2170   42.5620   49.5240 C   0  0  0  0  0  0  0  0  0  0  0  0
    7.8570   43.4810   49.1990 Br  0  0  0  0  0  0  0  0  0  0  0  0
    5.4040   42.9380   50.6000 C   0  0  0  0  0  0  0  0  0  0  0  0
    2.2330   45.7350   51.9780 N   0  0  0  0  0  0  0  0  0  0  0  0
    3.1420   46.2680   50.9480 C   0  0  0  0  0  0  0  0  0  0  0  0
    4.6040   46.1070   51.4000 C   0  0  0  0  0  0  0  0  0  0  0  0
    4.7420   46.5430   52.8350 C   0  0  0  0  0  0  0  0  0  0  0  0
    3.6890   46.5800   53.7130 C   0  0  0  0  0  0  0  0  0  0  0  0
    4.1300   46.7910   54.9680 N   0  0  0  0  0  0  0  0  0  0  0  0
    5.4740   46.8530   54.8240 C   0  0  0  0  0  0  0  0  0  0  0  0
    5.8770   46.6980   53.5410 N   0  0  0  0  0  0  0  0  0  0  0  0
    7.2360   46.6330   53.0800 C   0  0  0  0  0  0  0  0  0  0  0  0
    8.2960   46.8760   53.9690 C   0  0  0  0  0  0  0  0  0  0  0  0
    9.6200   46.8110   53.5250 C   0  0  0  0  0  0  0  0  0  0  0  0
    9.8960   46.5210   52.1850 C   0  0  0  0  0  0  0  0  0  0  0  0
   11.1810   46.4610   51.7550 F   0  0  0  0  0  0  0  0  0  0  0  0
    8.8470   46.3050   51.2880 C   0  0  0  0  0  0  0  0  0  0  0  0
    7.5210   46.3660   51.7300 C   0  0  0  0  0  0  0  0  0  0  0  0
    2.2640   46.3530   53.3130 C   0  0  0  0  0  0  0  0  0  0  0  0
  1  2  2  0
  2  3  1  0
  3  4  1  0
  4  5  1  0
  5  6  2  0
  6  7  1  0
  7  8  2  0
  8  9  1  0
  9 10  1  0
  9 11  2  0
  2 12  1  0
 12 13  1  0
 13 14  1  0
 14 15  1  0
 15 16  2  0
 16 17  1  0
 17 18  2  0
 18 19  1  0
 19 20  1  0
 20 21  2  0
 21 22  1  0
 22 23  2  0
 23 24  1  0
 23 25  1  0
 25 26  2  0
 16 27  1  0
 11  5  1  0
 27 12  1  0
 19 15  1  0
 26 20  1  0
M  END
>  <meeko>  (1) 
{"is_sidechain": [false], "free_energy": -10.186, "intermolecular_energy": -13.163, "internal_energy": -0.626}

$$$$
