ligand_44_conformer_4_docked
     RDKit          3D

 24 27  0  0  0  0  0  0  0  0999 V2000
    9.9280   47.4820   54.8260 C   0  0  0  0  0  0  0  0  0  0  0  0
    8.8540   48.3000   54.3810 O   0  0  0  0  0  0  0  0  0  0  0  0
    8.2110   48.0950   53.1570 C   0  0  0  0  0  0  0  0  0  0  0  0
    7.9200   49.0720   52.4120 O   0  0  0  0  0  0  0  0  0  0  0  0
    7.9090   46.6930   52.7080 C   0  0  2  0  0  0  0  0  0  0  0  0
    8.4840   46.4630   51.2860 C   0  0  0  0  0  0  0  0  0  0  0  0
    7.8000   45.3070   50.6040 C   0  0  0  0  0  0  0  0  0  0  0  0
    8.5140   44.3830   49.8290 C   0  0  0  0  0  0  0  0  0  0  0  0
    7.8380   43.3440   49.1810 C   0  0  0  0  0  0  0  0  0  0  0  0
    6.4480   43.2320   49.2930 C   0  0  0  0  0  0  0  0  0  0  0  0
    5.7290   44.1600   50.0520 C   0  0  0  0  0  0  0  0  0  0  0  0
    6.4040   45.2000   50.7080 C   0  0  0  0  0  0  0  0  0  0  0  0
    5.6830   46.2040   51.5550 C   0  0  0  0  0  0  0  0  0  0  0  0
    6.4540   46.4210   52.7930 N   0  0  0  0  0  0  0  0  0  0  0  0
    5.8500   46.2440   54.0970 C   0  0  0  0  0  0  0  0  0  0  0  0
    6.5450   45.8050   55.0550 O   0  0  0  0  0  0  0  0  0  0  0  0
    4.4070   46.5950   54.3480 C   0  0  2  0  0  0  0  0  0  0  0  0
    3.6900   45.7720   55.4200 C   0  0  0  0  0  0  0  0  0  0  0  0
    3.3710   45.5390   53.9420 C   0  0  0  0  0  0  0  0  0  0  0  0
    2.0220   46.0840   53.4500 C   0  0  0  0  0  0  0  0  0  0  0  0
    0.9630   44.9610   53.3470 C   0  0  0  0  0  0  0  0  0  0  0  0
    1.4780   43.6620   53.6030 O   0  0  0  0  0  0  0  0  0  0  0  0
    2.6210   43.4230   52.8040 C   0  0  0  0  0  0  0  0  0  0  0  0
    3.8270   44.1770   53.3740 C   0  0  0  0  0  0  0  0  0  0  0  0
  1  2  1  0
  2  3  1  0
  3  4  2  0
  5  3  1  6
  5  6  1  0
  6  7  1  0
  7  8  2  0
  8  9  1  0
  9 10  2  0
 10 11  1  0
 11 12  2  0
 12 13  1  0
 13 14  1  0
 14 15  1  0
 15 16  2  0
 17 15  1  6
 17 18  1  0
 18 19  1  0
 19 20  1  0
 20 21  1  0
 21 22  1  0
 22 23  1  0
 23 24  1  0
 14  5  1  0
 19 17  1  0
 12  7  1  0
 24 19  1  0
M  END
>  <meeko>  (1) 
{"is_sidechain": [false], "free_energy": -9.321, "intermolecular_energy": -11.5, "internal_energy": -0.716}

$$$$
