ligand_100_conformer_2_docked
     RDKit          3D

 22 24  0  0  0  0  0  0  0  0999 V2000
   10.0370   46.1080   51.7660 C   0  0  0  0  0  0  0  0  0  0  0  0
    8.9450   47.0350   52.3360 C   0  0  0  0  0  0  0  0  0  0  0  0
    8.4020   47.9230   51.2010 C   0  0  0  0  0  0  0  0  0  0  0  0
    9.5400   47.8690   53.3700 N   0  0  0  0  0  0  0  0  0  0  0  0
    9.1770   47.3800   54.6430 C   0  0  0  0  0  0  0  0  0  0  0  0
    9.6290   47.8630   55.7140 O   0  0  0  0  0  0  0  0  0  0  0  0
    8.2620   46.2200   54.5800 C   0  0  0  0  0  0  0  0  0  0  0  0
    7.8550   46.1820   53.0880 C   0  0  1  0  0  0  0  0  0  0  0  0
    6.4360   46.7110   52.9190 C   0  0  0  0  0  0  0  0  0  0  0  0
    6.2740   47.9490   52.7280 O   0  0  0  0  0  0  0  0  0  0  0  0
    5.2830   45.8370   52.9280 N   0  0  0  0  0  0  0  0  0  0  0  0
    4.5720   45.4490   54.1390 C   0  0  0  0  0  0  0  0  0  0  0  0
    3.3470   44.6680   53.6850 C   0  0  0  0  0  0  0  0  0  0  0  0
    3.6020   44.2910   52.2310 C   0  0  0  0  0  0  0  0  0  0  0  0
    4.6630   45.2880   51.7150 C   0  0  1  0  0  0  0  0  0  0  0  0
    3.9600   46.4450   50.9670 C   0  0  0  0  0  0  0  0  0  0  0  0
    5.7050   44.5440   50.8630 C   0  0  0  0  0  0  0  0  0  0  0  0
    6.7480   45.2070   50.1770 C   0  0  0  0  0  0  0  0  0  0  0  0
    7.6680   44.4850   49.4110 C   0  0  0  0  0  0  0  0  0  0  0  0
    7.5600   43.0990   49.3030 C   0  0  0  0  0  0  0  0  0  0  0  0
    6.5240   42.4290   49.9540 C   0  0  0  0  0  0  0  0  0  0  0  0
    5.6000   43.1440   50.7200 C   0  0  0  0  0  0  0  0  0  0  0  0
  1  2  1  0
  2  3  1  0
  2  4  1  0
  4  5  1  0
  5  6  2  0
  5  7  1  0
  7  8  1  0
  8  9  1  1
  9 10  2  0
  9 11  1  0
 11 12  1  0
 12 13  1  0
 13 14  1  0
 14 15  1  0
 15 16  1  6
 15 17  1  0
 17 18  2  0
 18 19  1  0
 19 20  2  0
 20 21  1  0
 21 22  2  0
  8  2  1  0
 15 11  1  0
 22 17  1  0
M  END
>  <meeko>  (1) 
{"is_sidechain": [false], "free_energy": -8.74, "intermolecular_energy": -10.272, "internal_energy": 0.053}

$$$$
