ligand_62_conformer_4_docked
     RDKit          3D

 23 25  0  0  0  0  0  0  0  0999 V2000
   10.6820   45.4410   51.5460 C   0  0  0  0  0  0  0  0  0  0  0  0
    9.9520   46.6510   51.9520 N   0  0  0  0  0  0  0  0  0  0  0  0
    9.9350   46.8240   53.4150 C   0  0  0  0  0  0  0  0  0  0  0  0
    8.4930   47.0810   53.8430 C   0  0  0  0  0  0  0  0  0  0  0  0
    7.7440   47.3990   52.5480 C   0  0  2  0  0  0  0  0  0  0  0  0
    7.8230   48.9120   52.2320 C   0  0  0  0  0  0  0  0  0  0  0  0
    6.2680   46.9220   52.5850 C   0  0  0  0  0  0  0  0  0  0  0  0
    6.1710   45.4610   52.5770 N   0  0  0  0  0  0  0  0  0  0  0  0
    5.7060   44.7090   51.4480 C   0  0  0  0  0  0  0  0  0  0  0  0
    5.2540   45.3060   50.4330 O   0  0  0  0  0  0  0  0  0  0  0  0
    5.7900   43.2750   51.4690 N   0  0  0  0  0  0  0  0  0  0  0  0
    5.1860   42.4170   50.4870 C   0  0  0  0  0  0  0  0  0  0  0  0
    5.8720   42.1500   49.2930 C   0  0  0  0  0  0  0  0  0  0  0  0
    5.3180   41.3030   48.3300 C   0  0  0  0  0  0  0  0  0  0  0  0
    4.0720   40.6920   48.5530 C   0  0  0  0  0  0  0  0  0  0  0  0
    3.4800   39.7940   47.5400 C   0  0  0  0  0  0  0  0  0  0  0  0
    3.5930   39.9850   46.2080 N   0  0  0  0  0  0  0  0  0  0  0  0
    2.9140   38.9470   45.6840 C   0  0  0  0  0  0  0  0  0  0  0  0
    2.4190   38.1690   46.7060 C   0  0  0  0  0  0  0  0  0  0  0  0
    2.7860   38.7170   47.8370 O   0  0  0  0  0  0  0  0  0  0  0  0
    3.3960   40.9380   49.7590 C   0  0  0  0  0  0  0  0  0  0  0  0
    3.9510   41.7870   50.7210 C   0  0  0  0  0  0  0  0  0  0  0  0
    8.5500   46.6110   51.5110 C   0  0  0  0  0  0  0  0  0  0  0  0
  1  2  1  0
  2  3  1  0
  3  4  1  0
  4  5  1  0
  5  6  1  6
  5  7  1  0
  7  8  1  0
  8  9  1  0
  9 10  2  0
  9 11  1  0
 11 12  1  0
 12 13  2  0
 13 14  1  0
 14 15  2  0
 15 16  1  0
 16 17  2  0
 17 18  1  0
 18 19  2  0
 19 20  1  0
 15 21  1  0
 21 22  2  0
  5 23  1  0
 23  2  1  0
 22 12  1  0
 20 16  1  0
M  END
>  <meeko>  (1) 
{"is_sidechain": [false], "free_energy": -7.859, "intermolecular_energy": -9.696, "internal_energy": -0.413}

$$$$
