ligand_9_conformer_1_docked
     RDKit          3D

 25 28  0  0  0  0  0  0  0  0999 V2000
    9.9440   46.7950   52.4030 C   0  0  0  0  0  0  0  0  0  0  0  0
    9.6830   47.0700   53.7490 C   0  0  0  0  0  0  0  0  0  0  0  0
    8.3920   46.9060   54.2600 C   0  0  0  0  0  0  0  0  0  0  0  0
    7.3480   46.4650   53.4280 C   0  0  0  0  0  0  0  0  0  0  0  0
    5.9940   46.2480   53.9780 C   0  0  0  0  0  0  0  0  0  0  0  0
    5.7470   45.5930   55.1300 N   0  0  0  0  0  0  0  0  0  0  0  0
    4.4530   45.5630   55.2280 O   0  0  0  0  0  0  0  0  0  0  0  0
    3.9160   46.1560   54.1890 C   0  0  0  0  0  0  0  0  0  0  0  0
    2.4270   46.3000   53.9790 C   0  0  0  0  0  0  0  0  0  0  0  0
    1.6700   45.1130   54.5960 C   0  0  0  0  0  0  0  0  0  0  0  0
    1.9190   43.7890   53.8380 C   0  0  0  0  0  0  0  0  0  0  0  0
    2.5460   43.9960   52.5090 N   0  0  0  0  0  0  0  0  0  0  0  0
    2.5690   42.7390   51.7130 C   0  0  0  0  0  0  0  0  0  0  0  0
    4.0160   42.2440   51.4760 C   0  0  2  0  0  0  0  0  0  0  0  0
    5.0570   43.3870   51.7020 C   0  0  0  0  0  0  0  0  0  0  0  0
    5.4960   44.1330   50.4320 C   0  0  0  0  0  0  0  0  0  0  0  0
    6.6140   43.4340   49.6240 C   0  0  0  0  0  0  0  0  0  0  0  0
    6.2040   42.1520   48.8830 C   0  0  0  0  0  0  0  0  0  0  0  0
    5.5050   41.1620   49.7160 N   0  0  0  0  0  0  0  0  0  0  0  0
    4.1280   41.5060   50.1120 C   0  0  0  0  0  0  0  0  0  0  0  0
    1.8660   45.0830   51.7760 C   0  0  0  0  0  0  0  0  0  0  0  0
    2.0380   46.4420   52.4890 C   0  0  0  0  0  0  0  0  0  0  0  0
    4.8610   46.6260   53.3520 N   0  0  0  0  0  0  0  0  0  0  0  0
    7.6210   46.1920   52.0740 C   0  0  0  0  0  0  0  0  0  0  0  0
    8.9140   46.3580   51.5670 C   0  0  0  0  0  0  0  0  0  0  0  0
  1  2  2  0
  2  3  1  0
  3  4  2  0
  4  5  1  0
  5  6  2  0
  6  7  1  0
  7  8  1  0
  8  9  1  0
  9 10  1  0
 10 11  1  0
 11 12  1  0
 12 13  1  0
 14 13  1  6
 14 15  1  0
 15 16  1  0
 16 17  1  0
 17 18  1  0
 18 19  1  0
 19 20  1  0
 12 21  1  0
 21 22  1  0
  8 23  2  0
  4 24  1  0
 24 25  2  0
 25  1  1  0
 23  5  1  0
 22  9  1  0
 20 14  1  0
M  END
>  <meeko>  (1) 
{"is_sidechain": [false], "free_energy": -7.199, "intermolecular_energy": -11.408, "internal_energy": -0.814}

$$$$
