ligand_60_conformer_2_docked
     RDKit          3D

 23 26  0  0  0  0  0  0  0  0999 V2000
    1.5250   45.5850   53.9970 C   0  0  0  0  0  0  0  0  0  0  0  0
    2.7530   46.3500   53.4770 C   0  0  2  0  0  0  0  0  0  0  0  0
    2.6830   46.6040   51.9590 C   0  0  0  0  0  0  0  0  0  0  0  0
    2.9160   45.3270   51.1390 C   0  0  0  0  0  0  0  0  0  0  0  0
    4.2630   44.6440   51.4890 C   0  0  1  0  0  0  0  0  0  0  0  0
    4.3920   43.2970   50.7410 C   0  0  0  0  0  0  0  0  0  0  0  0
    5.8740   43.1340   50.4340 C   0  0  0  0  0  0  0  0  0  0  0  0
    6.4280   44.4750   50.4780 N   0  0  0  0  0  0  0  0  0  0  0  0
    7.7900   44.7600   50.1000 C   0  0  0  0  0  0  0  0  0  0  0  0
    8.1800   44.4670   48.9370 O   0  0  0  0  0  0  0  0  0  0  0  0
    8.7480   45.3910   51.0310 C   0  0  0  0  0  0  0  0  0  0  0  0
   10.1250   45.3730   50.9000 C   0  0  0  0  0  0  0  0  0  0  0  0
   10.6190   46.0810   51.9750 C   0  0  0  0  0  0  0  0  0  0  0  0
    9.5110   46.4880   52.6920 C   0  0  0  0  0  0  0  0  0  0  0  0
    9.5250   47.2740   53.9280 C   0  0  0  0  0  0  0  0  0  0  0  0
   10.3430   47.0300   54.9690 N   0  0  0  0  0  0  0  0  0  0  0  0
   10.0380   47.9550   55.8630 N   0  0  0  0  0  0  0  0  0  0  0  0
    9.0760   48.7230   55.3810 N   0  0  0  0  0  0  0  0  0  0  0  0
    8.7250   48.3310   54.1680 N   0  0  0  0  0  0  0  0  0  0  0  0
    8.4150   46.0650   52.1070 O   0  0  0  0  0  0  0  0  0  0  0  0
    5.4770   45.4550   50.9780 C   0  0  0  0  0  0  0  0  0  0  0  0
    4.3530   44.3940   53.0230 C   0  0  0  0  0  0  0  0  0  0  0  0
    4.0730   45.6550   53.8620 C   0  0  0  0  0  0  0  0  0  0  0  0
  2  1  1  6
  2  3  1  0
  3  4  1  0
  5  4  1  1
  5  6  1  0
  6  7  1  0
  7  8  1  0
  8  9  1  0
  9 10  2  0
  9 11  1  0
 11 12  2  0
 12 13  1  0
 13 14  2  0
 14 15  1  0
 15 16  1  0
 16 17  2  0
 17 18  1  0
 18 19  1  0
 14 20  1  0
  8 21  1  0
  5 22  1  0
 22 23  1  0
 23  2  1  0
 21  5  1  0
 20 11  1  0
 19 15  2  0
M  END
>  <meeko>  (1) 
{"is_sidechain": [false], "free_energy": -9.084, "intermolecular_energy": -10.677, "internal_energy": -0.409}

$$$$
