ligand_24_conformer_2_docked
     RDKit          3D

 26 29  0  0  0  0  0  0  0  0999 V2000
    7.8630   44.5260   49.1820 C   0  0  0  0  0  0  0  0  0  0  0  0
    7.2710   45.0650   50.4420 C   0  0  0  0  0  0  0  0  0  0  0  0
    5.9670   44.8360   50.7250 N   0  0  0  0  0  0  0  0  0  0  0  0
    5.4010   45.2800   51.8750 C   0  0  0  0  0  0  0  0  0  0  0  0
    4.0260   44.9600   52.1410 N   0  0  0  0  0  0  0  0  0  0  0  0
    3.6970   43.7850   52.9570 C   0  0  0  0  0  0  0  0  0  0  0  0
    2.4770   43.0440   52.3900 C   0  0  0  0  0  0  0  0  0  0  0  0
    1.1910   43.8900   52.3750 C   0  0  0  0  0  0  0  0  0  0  0  0
    1.2670   45.0740   53.2470 N   0  0  0  0  0  0  0  0  0  0  0  0
    0.7420   45.0440   54.5950 C   0  0  0  0  0  0  0  0  0  0  0  0
    1.5660   45.3310   55.6990 C   0  0  0  0  0  0  0  0  0  0  0  0
    1.0340   45.3130   56.9890 C   0  0  0  0  0  0  0  0  0  0  0  0
   -0.2750   45.0010   57.1830 N   0  0  0  0  0  0  0  0  0  0  0  0
   -1.0940   44.6990   56.1430 C   0  0  0  0  0  0  0  0  0  0  0  0
   -0.6030   44.7120   54.8350 C   0  0  0  0  0  0  0  0  0  0  0  0
    1.9970   46.2520   52.7520 C   0  0  0  0  0  0  0  0  0  0  0  0
    2.9740   45.8560   51.6420 C   0  0  0  0  0  0  0  0  0  0  0  0
    6.1780   46.0090   52.8030 C   0  0  0  0  0  0  0  0  0  0  0  0
    5.5440   46.6020   54.0370 C   0  0  0  0  0  0  0  0  0  0  0  0
    7.5560   46.1770   52.5190 C   0  0  0  0  0  0  0  0  0  0  0  0
    8.4600   46.8180   53.4390 N   0  0  0  0  0  0  0  0  0  0  0  0
    9.7630   46.5130   53.5920 C   0  0  0  0  0  0  0  0  0  0  0  0
   10.2740   47.2810   54.6140 C   0  0  0  0  0  0  0  0  0  0  0  0
    9.2040   48.0340   55.0580 C   0  0  0  0  0  0  0  0  0  0  0  0
    8.1100   47.7280   54.3350 N   0  0  0  0  0  0  0  0  0  0  0  0
    8.0540   45.7070   51.3430 N   0  0  0  0  0  0  0  0  0  0  0  0
  1  2  1  0
  2  3  2  0
  3  4  1  0
  4  5  1  0
  5  6  1  0
  6  7  1  0
  7  8  1  0
  8  9  1  0
  9 10  1  0
 10 11  2  0
 11 12  1  0
 12 13  2  0
 13 14  1  0
 14 15  2  0
  9 16  1  0
 16 17  1  0
  4 18  2  0
 18 19  1  0
 18 20  1  0
 20 21  1  0
 21 22  1  0
 22 23  2  0
 23 24  1  0
 24 25  2  0
 20 26  2  0
 26  2  1  0
 17  5  1  0
 25 21  1  0
 15 10  1  0
M  END
>  <meeko>  (1) 
{"is_sidechain": [false], "free_energy": -7.1, "intermolecular_energy": -10.836, "internal_energy": 0.489}

$$$$
