ligand_50_conformer_5_docked
     RDKit          3D

 23 26  0  0  0  0  0  0  0  0999 V2000
    4.5780   42.5350   51.2410 C   0  0  0  0  0  0  0  0  0  0  0  0
    4.4070   43.6710   52.1930 C   0  0  0  0  0  0  0  0  0  0  0  0
    3.1960   43.8740   52.8040 N   0  0  0  0  0  0  0  0  0  0  0  0
    2.9850   44.9190   53.6600 C   0  0  0  0  0  0  0  0  0  0  0  0
    1.7030   45.0950   54.2820 N   0  0  0  0  0  0  0  0  0  0  0  0
    0.4500   44.7220   53.6430 C   0  0  0  0  0  0  0  0  0  0  0  0
   -0.6250   44.9160   54.7030 C   0  0  0  0  0  0  0  0  0  0  0  0
    0.1170   44.9050   56.0440 C   0  0  2  0  0  0  0  0  0  0  0  0
   -0.5240   45.8250   57.0920 C   0  0  0  0  0  0  0  0  0  0  0  0
    0.4500   46.2640   57.9970 O   0  0  0  0  0  0  0  0  0  0  0  0
    1.5560   45.3090   55.7120 C   0  0  0  0  0  0  0  0  0  0  0  0
    4.0580   45.7800   53.8910 C   0  0  0  0  0  0  0  0  0  0  0  0
    4.2880   46.8350   54.7530 C   0  0  0  0  0  0  0  0  0  0  0  0
    5.5750   47.2350   54.6040 N   0  0  0  0  0  0  0  0  0  0  0  0
    6.1540   46.4740   53.6800 N   0  0  0  0  0  0  0  0  0  0  0  0
    7.5360   46.5960   53.2930 C   0  0  0  0  0  0  0  0  0  0  0  0
    7.9330   46.4510   51.9500 C   0  0  0  0  0  0  0  0  0  0  0  0
    9.2780   46.5830   51.5930 C   0  0  0  0  0  0  0  0  0  0  0  0
   10.2380   46.8670   52.5650 C   0  0  0  0  0  0  0  0  0  0  0  0
    9.8540   47.0260   53.8990 C   0  0  0  0  0  0  0  0  0  0  0  0
    8.5090   46.8970   54.2620 C   0  0  0  0  0  0  0  0  0  0  0  0
    5.2420   45.5800   53.2520 C   0  0  0  0  0  0  0  0  0  0  0  0
    5.4440   44.5330   52.4170 N   0  0  0  0  0  0  0  0  0  0  0  0
  1  2  1  0
  2  3  2  0
  3  4  1  0
  4  5  1  0
  5  6  1  0
  6  7  1  0
  7  8  1  0
  8  9  1  1
  9 10  1  0
  8 11  1  0
  4 12  2  0
 12 13  1  0
 13 14  2  0
 14 15  1  0
 15 16  1  0
 16 17  2  0
 17 18  1  0
 18 19  2  0
 19 20  1  0
 20 21  2  0
 15 22  1  0
 22 23  2  0
 23  2  1  0
 11  5  1  0
 22 12  1  0
 21 16  1  0
M  END
>  <meeko>  (1) 
{"is_sidechain": [false], "free_energy": -8.866, "intermolecular_energy": -10.68, "internal_energy": -0.116}

$$$$
