ligand_52_conformer_4_docked
     RDKit          3D

 24 27  0  0  0  0  0  0  0  0999 V2000
   -2.9890   45.4940   54.9480 C   0  0  0  0  0  0  0  0  0  0  0  0
   -1.9430   44.5650   55.5880 C   0  0  0  0  0  0  0  0  0  0  0  0
   -1.1470   43.7050   54.5810 C   0  0  0  0  0  0  0  0  0  0  0  0
   -0.3220   44.5360   53.7090 N   0  0  0  0  0  0  0  0  0  0  0  0
    0.9330   44.9540   53.9400 C   0  0  0  0  0  0  0  0  0  0  0  0
    1.3080   45.6730   52.8230 C   0  0  0  0  0  0  0  0  0  0  0  0
    2.5960   46.3380   52.5710 C   0  0  0  0  0  0  0  0  0  0  0  0
    2.6680   47.5930   52.6710 O   0  0  0  0  0  0  0  0  0  0  0  0
    3.7640   45.5840   52.2120 N   0  0  0  0  0  0  0  0  0  0  0  0
    5.0460   46.2380   51.9690 C   0  0  2  0  0  0  0  0  0  0  0  0
    5.8370   45.5890   50.8360 C   0  0  0  0  0  0  0  0  0  0  0  0
    6.2520   45.3620   52.2870 C   0  0  1  0  0  0  0  0  0  0  0  0
    7.5160   46.0640   52.7510 C   0  0  0  0  0  0  0  0  0  0  0  0
    7.5940   46.8350   53.9320 C   0  0  0  0  0  0  0  0  0  0  0  0
    8.7950   47.4510   54.2970 C   0  0  0  0  0  0  0  0  0  0  0  0
    9.9300   47.3090   53.4960 C   0  0  0  0  0  0  0  0  0  0  0  0
    9.8660   46.5500   52.3260 C   0  0  0  0  0  0  0  0  0  0  0  0
   10.9680   46.4120   51.5490 F   0  0  0  0  0  0  0  0  0  0  0  0
    8.6680   45.9320   51.9560 C   0  0  0  0  0  0  0  0  0  0  0  0
    0.2780   45.6670   51.9520 N   0  0  0  0  0  0  0  0  0  0  0  0
   -0.6970   44.9690   52.5150 N   0  0  0  0  0  0  0  0  0  0  0  0
   -1.0640   45.2630   56.6120 C   0  0  0  0  0  0  0  0  0  0  0  0
   -1.6000   44.5200   57.6810 O   0  0  0  0  0  0  0  0  0  0  0  0
   -2.4490   43.8130   56.8070 C   0  0  0  0  0  0  0  0  0  0  0  0
  1  2  1  0
  2  3  1  0
  3  4  1  0
  4  5  1  0
  5  6  2  0
  6  7  1  0
  7  8  2  0
  7  9  1  0
 10  9  1  1
 10 11  1  0
 11 12  1  0
 12 13  1  6
 13 14  2  0
 14 15  1  0
 15 16  2  0
 16 17  1  0
 17 18  1  0
 17 19  2  0
  6 20  1  0
 20 21  2  0
  2 22  1  0
 22 23  1  0
 23 24  1  0
 24  2  1  0
 21  4  1  0
 12 10  1  0
 19 13  1  0
M  END
>  <meeko>  (1) 
{"is_sidechain": [false], "free_energy": -8.369, "intermolecular_energy": -10.815, "internal_energy": -0.28}

$$$$
