ligand_18_conformer_4_docked
     RDKit          3D

 25 28  0  0  0  0  0  0  0  0999 V2000
    2.6080   44.9490   51.7100 O   0  0  0  0  0  0  0  0  0  0  0  0
    3.1830   43.8440   51.9140 C   0  0  0  0  0  0  0  0  0  0  0  0
    2.6200   42.9060   52.8470 N   0  0  0  0  0  0  0  0  0  0  0  0
    1.2790   43.0070   53.3530 C   0  0  0  0  0  0  0  0  0  0  0  0
    0.2250   42.3050   52.8770 N   0  0  0  0  0  0  0  0  0  0  0  0
   -0.8370   42.6460   53.6020 N   0  0  0  0  0  0  0  0  0  0  0  0
   -0.4030   43.5460   54.5040 C   0  0  0  0  0  0  0  0  0  0  0  0
   -1.1660   44.1820   55.4810 C   0  0  0  0  0  0  0  0  0  0  0  0
   -0.5060   45.0910   56.3260 C   0  0  0  0  0  0  0  0  0  0  0  0
    0.8750   45.3330   56.1740 C   0  0  0  0  0  0  0  0  0  0  0  0
    1.5900   44.6600   55.1710 C   0  0  0  0  0  0  0  0  0  0  0  0
    0.9080   43.7920   54.3790 N   0  0  0  0  0  0  0  0  0  0  0  0
    4.4530   43.5480   51.2070 C   0  0  0  0  0  0  0  0  0  0  0  0
    4.7140   42.2640   50.6960 C   0  0  0  0  0  0  0  0  0  0  0  0
    5.9050   42.0030   50.0130 C   0  0  0  0  0  0  0  0  0  0  0  0
    6.8480   43.0170   49.8360 C   0  0  0  0  0  0  0  0  0  0  0  0
    6.6160   44.2990   50.3460 C   0  0  0  0  0  0  0  0  0  0  0  0
    7.5890   45.3340   50.1270 N   0  0  0  0  0  0  0  0  0  0  0  0
    8.2520   46.0640   51.1750 C   0  0  0  0  0  0  0  0  0  0  0  0
    9.5820   45.7530   51.4980 C   0  0  0  0  0  0  0  0  0  0  0  0
   10.2360   46.4320   52.5310 C   0  0  0  0  0  0  0  0  0  0  0  0
    9.5610   47.4150   53.2590 C   0  0  0  0  0  0  0  0  0  0  0  0
    8.2300   47.7160   52.9610 C   0  0  0  0  0  0  0  0  0  0  0  0
    7.5720   47.0390   51.9290 C   0  0  0  0  0  0  0  0  0  0  0  0
    5.4040   44.5660   51.0100 C   0  0  0  0  0  0  0  0  0  0  0  0
  1  2  2  0
  2  3  1  0
  3  4  1  0
  4  5  2  0
  5  6  1  0
  6  7  2  0
  7  8  1  0
  8  9  2  0
  9 10  1  0
 10 11  2  0
 11 12  1  0
  2 13  1  0
 13 14  2  0
 14 15  1  0
 15 16  2  0
 16 17  1  0
 17 18  1  0
 18 19  1  0
 19 20  2  0
 20 21  1  0
 21 22  2  0
 22 23  1  0
 23 24  2  0
 17 25  2  0
 12  4  1  0
 25 13  1  0
 12  7  1  0
 24 19  1  0
M  END
>  <meeko>  (1) 
{"is_sidechain": [false], "free_energy": -10.183, "intermolecular_energy": -12.564, "internal_energy": -0.669}

$$$$
