ligand_31_conformer_5_docked
     RDKit          3D

 24 27  0  0  0  0  0  0  0  0999 V2000
    5.6110   42.9180   50.1390 C   0  0  0  0  0  0  0  0  0  0  0  0
    6.2770   43.8840   51.1190 C   0  0  0  0  0  0  0  0  0  0  0  0
    6.1360   45.3870   50.7600 C   0  0  2  0  0  0  0  0  0  0  0  0
    7.4840   46.0790   50.4770 C   0  0  0  0  0  0  0  0  0  0  0  0
    8.2050   46.4440   51.7340 C   0  0  0  0  0  0  0  0  0  0  0  0
    9.6090   46.4250   51.7780 C   0  0  0  0  0  0  0  0  0  0  0  0
   10.2800   46.7900   52.9480 C   0  0  0  0  0  0  0  0  0  0  0  0
    9.5560   47.1900   54.0720 C   0  0  0  0  0  0  0  0  0  0  0  0
    8.1600   47.2290   54.0280 C   0  0  0  0  0  0  0  0  0  0  0  0
    7.4760   46.8490   52.8620 C   0  0  0  0  0  0  0  0  0  0  0  0
    5.9720   46.9460   52.8180 C   0  0  0  0  0  0  0  0  0  0  0  0
    5.3350   46.1180   51.7710 N   0  0  0  0  0  0  0  0  0  0  0  0
    3.8810   46.0810   51.7630 C   0  0  0  0  0  0  0  0  0  0  0  0
    3.2570   46.7900   50.9230 O   0  0  0  0  0  0  0  0  0  0  0  0
    3.0700   45.1430   52.6440 C   0  0  1  0  0  0  0  0  0  0  0  0
    1.9880   45.9370   53.4210 C   0  0  0  0  0  0  0  0  0  0  0  0
    1.3500   45.1340   54.5650 C   0  0  0  0  0  0  0  0  0  0  0  0
    0.3610   44.1360   54.0470 C   0  0  0  0  0  0  0  0  0  0  0  0
   -0.9370   44.1070   54.4040 N   0  0  0  0  0  0  0  0  0  0  0  0
   -1.4910   43.0940   53.7510 N   0  0  0  0  0  0  0  0  0  0  0  0
   -0.5250   42.5220   53.0080 C   0  0  0  0  0  0  0  0  0  0  0  0
    0.6490   43.1580   53.1720 N   0  0  0  0  0  0  0  0  0  0  0  0
    1.9350   42.8370   52.5610 C   0  0  0  0  0  0  0  0  0  0  0  0
    2.4700   44.0290   51.7560 C   0  0  0  0  0  0  0  0  0  0  0  0
  1  2  1  0
  3  2  1  1
  3  4  1  0
  4  5  1  0
  5  6  2  0
  6  7  1  0
  7  8  2  0
  8  9  1  0
  9 10  2  0
 10 11  1  0
 11 12  1  0
 12 13  1  0
 13 14  2  0
 15 13  1  6
 15 16  1  0
 16 17  1  0
 17 18  1  0
 18 19  2  0
 19 20  1  0
 20 21  2  0
 21 22  1  0
 22 23  1  0
 23 24  1  0
 12  3  1  0
 24 15  1  0
 10  5  1  0
 22 18  1  0
M  END
>  <meeko>  (1) 
{"is_sidechain": [false], "free_energy": -7.55, "intermolecular_energy": -11.081, "internal_energy": -0.225}

$$$$
