ligand_97_conformer_5_docked
     RDKit          3D

 24 27  0  0  0  0  0  0  0  0999 V2000
    8.8900   44.1220   49.1040 O   0  0  0  0  0  0  0  0  0  0  0  0
    8.9860   44.7960   50.1660 C   0  0  0  0  0  0  0  0  0  0  0  0
   10.2430   44.9600   50.7520 C   0  0  0  0  0  0  0  0  0  0  0  0
   10.3690   45.7090   51.9190 C   0  0  0  0  0  0  0  0  0  0  0  0
    9.2350   46.2780   52.5080 C   0  0  0  0  0  0  0  0  0  0  0  0
    9.3580   47.0950   53.7310 C   0  0  0  0  0  0  0  0  0  0  0  0
    8.4370   47.9830   54.1520 N   0  0  0  0  0  0  0  0  0  0  0  0
    8.9140   48.5120   55.2680 N   0  0  0  0  0  0  0  0  0  0  0  0
   10.1070   47.9300   55.4890 C   0  0  0  0  0  0  0  0  0  0  0  0
   10.3840   47.0600   54.5480 O   0  0  0  0  0  0  0  0  0  0  0  0
    7.9860   46.0730   51.9050 C   0  0  0  0  0  0  0  0  0  0  0  0
    7.8740   45.3640   50.7370 N   0  0  0  0  0  0  0  0  0  0  0  0
    6.5560   45.2490   50.0890 C   0  0  0  0  0  0  0  0  0  0  0  0
    5.8060   44.0580   50.6210 C   0  0  0  0  0  0  0  0  0  0  0  0
    5.7190   42.8890   49.9570 N   0  0  0  0  0  0  0  0  0  0  0  0
    4.8590   42.1830   50.7240 C   0  0  0  0  0  0  0  0  0  0  0  0
    4.4260   42.8790   51.7920 N   0  0  0  0  0  0  0  0  0  0  0  0
    5.0320   44.0500   51.7250 N   0  0  0  0  0  0  0  0  0  0  0  0
    4.8150   45.1140   52.6600 C   0  0  0  0  0  0  0  0  0  0  0  0
    4.1530   46.2810   52.2510 C   0  0  0  0  0  0  0  0  0  0  0  0
    3.9710   47.3370   53.1500 C   0  0  0  0  0  0  0  0  0  0  0  0
    4.4330   47.2250   54.4640 C   0  0  0  0  0  0  0  0  0  0  0  0
    5.0730   46.0540   54.8840 C   0  0  0  0  0  0  0  0  0  0  0  0
    5.2610   44.9990   53.9860 C   0  0  0  0  0  0  0  0  0  0  0  0
  1  2  2  0
  2  3  1  0
  3  4  2  0
  4  5  1  0
  5  6  1  0
  6  7  2  0
  7  8  1  0
  8  9  2  0
  9 10  1  0
  5 11  2  0
 11 12  1  0
 12 13  1  0
 13 14  1  0
 14 15  2  0
 15 16  1  0
 16 17  2  0
 17 18  1  0
 18 19  1  0
 19 20  2  0
 20 21  1  0
 21 22  2  0
 22 23  1  0
 23 24  2  0
 12  2  1  0
 18 14  1  0
 24 19  1  0
 10  6  1  0
M  END
>  <meeko>  (1) 
{"is_sidechain": [false], "free_energy": -9.058, "intermolecular_energy": -11.177, "internal_energy": -0.788}

$$$$
