ligand_93_conformer_1_docked
     RDKit          3D

 29 33  0  0  0  0  0  0  0  0999 V2000
   -1.0110   47.1900   57.7090 C   0  0  0  0  0  0  0  0  0  0  0  0
   -0.9270   45.7680   57.3430 N   0  0  0  0  0  0  0  0  0  0  0  0
    0.4720   45.3260   57.2080 C   0  0  0  0  0  0  0  0  0  0  0  0
    0.5480   44.4290   55.9880 C   0  0  0  0  0  0  0  0  0  0  0  0
   -0.5440   44.9640   55.0810 C   0  0  2  0  0  0  0  0  0  0  0  0
   -1.6060   45.4840   56.0630 C   0  0  1  0  0  0  0  0  0  0  0  0
   -2.6910   44.4230   56.3100 C   0  0  0  0  0  0  0  0  0  0  0  0
   -3.4110   44.0260   55.0140 C   0  0  0  0  0  0  0  0  0  0  0  0
   -2.4870   44.0080   53.7830 C   0  0  0  0  0  0  0  0  0  0  0  0
   -1.0710   43.9320   54.1680 N   0  0  0  0  0  0  0  0  0  0  0  0
   -0.1510   43.1430   53.3860 C   0  0  0  0  0  0  0  0  0  0  0  0
   -0.1110   41.8940   53.5580 O   0  0  0  0  0  0  0  0  0  0  0  0
    0.7700   43.7570   52.3510 C   0  0  2  0  0  0  0  0  0  0  0  0
    1.5360   42.6940   51.5560 C   0  0  0  0  0  0  0  0  0  0  0  0
    3.0130   43.0600   51.6400 C   0  0  0  0  0  0  0  0  0  0  0  0
    3.1160   44.2450   52.4820 N   0  0  0  0  0  0  0  0  0  0  0  0
    4.3840   44.8660   52.8260 C   0  0  0  0  0  0  0  0  0  0  0  0
    4.8990   44.7450   54.1350 C   0  0  0  0  0  0  0  0  0  0  0  0
    6.1130   45.3370   54.4910 C   0  0  0  0  0  0  0  0  0  0  0  0
    6.8480   46.0720   53.5550 C   0  0  0  0  0  0  0  0  0  0  0  0
    8.1310   46.7000   53.9350 C   0  0  0  0  0  0  0  0  0  0  0  0
    8.2780   47.5870   54.9410 N   0  0  0  0  0  0  0  0  0  0  0  0
    9.5650   47.8930   54.9410 N   0  0  0  0  0  0  0  0  0  0  0  0
   10.1690   47.2210   53.9760 N   0  0  0  0  0  0  0  0  0  0  0  0
    9.3080   46.4610   53.3230 N   0  0  0  0  0  0  0  0  0  0  0  0
    6.3520   46.2010   52.2500 C   0  0  0  0  0  0  0  0  0  0  0  0
    5.1390   45.6060   51.8830 C   0  0  0  0  0  0  0  0  0  0  0  0
    4.7310   45.7660   50.6010 F   0  0  0  0  0  0  0  0  0  0  0  0
    1.8150   44.7220   52.9290 C   0  0  0  0  0  0  0  0  0  0  0  0
  1  2  1  0
  2  3  1  0
  3  4  1  0
  5  4  1  1
  5  6  1  0
  6  7  1  1
  7  8  1  0
  8  9  1  0
  9 10  1  0
 10 11  1  0
 11 12  2  0
 13 11  1  1
 13 14  1  0
 14 15  1  0
 15 16  1  0
 16 17  1  0
 17 18  2  0
 18 19  1  0
 19 20  2  0
 20 21  1  0
 21 22  1  0
 22 23  2  0
 23 24  1  0
 24 25  1  0
 20 26  1  0
 26 27  2  0
 27 28  1  0
 16 29  1  0
  6  2  1  0
 29 13  1  0
 10  5  1  0
 27 17  1  0
 25 21  2  0
M  END
>  <meeko>  (1) 
{"is_sidechain": [false], "free_energy": -9.105, "intermolecular_energy": -11.234, "internal_energy": -0.453}

$$$$
