ligand_21_conformer_1_docked
     RDKit          3D

 23 26  0  0  0  0  0  0  0  0999 V2000
    2.9000   42.4690   52.2150 C   0  0  0  0  0  0  0  0  0  0  0  0
    2.6920   43.9670   52.4600 C   0  0  1  0  0  0  0  0  0  0  0  0
    2.3350   44.6370   51.1940 N   0  0  0  0  0  0  0  0  0  0  0  0
    2.7540   46.0500   51.1370 C   0  0  0  0  0  0  0  0  0  0  0  0
    4.1110   46.2700   51.7470 C   0  0  0  0  0  0  0  0  0  0  0  0
    5.2250   45.8950   51.0510 N   0  0  0  0  0  0  0  0  0  0  0  0
    6.4450   46.1280   51.5840 C   0  0  0  0  0  0  0  0  0  0  0  0
    7.9470   45.7540   50.8910 S   0  0  0  0  0  0  0  0  0  0  0  0
    8.7820   46.3970   52.2130 C   0  0  0  0  0  0  0  0  0  0  0  0
    7.9410   46.8840   53.1510 C   0  0  0  0  0  0  0  0  0  0  0  0
    6.5960   46.7440   52.8150 C   0  0  0  0  0  0  0  0  0  0  0  0
    5.4590   47.1300   53.5200 C   0  0  0  0  0  0  0  0  0  0  0  0
    5.5510   47.6970   54.6420 O   0  0  0  0  0  0  0  0  0  0  0  0
    4.2330   46.8870   52.9670 N   0  0  0  0  0  0  0  0  0  0  0  0
    8.6550   47.4630   54.3060 C   0  0  0  0  0  0  0  0  0  0  0  0
   10.1470   47.2490   53.9340 C   0  0  0  0  0  0  0  0  0  0  0  0
   10.2060   46.5510   52.5510 C   0  0  0  0  0  0  0  0  0  0  0  0
    1.6160   44.1590   53.4970 C   0  0  0  0  0  0  0  0  0  0  0  0
    1.7670   44.8290   54.7040 C   0  0  0  0  0  0  0  0  0  0  0  0
    0.5890   44.8670   55.4590 C   0  0  0  0  0  0  0  0  0  0  0  0
    0.4740   45.7220   57.1600 Br  0  0  0  0  0  0  0  0  0  0  0  0
   -0.4890   44.2310   54.8570 C   0  0  0  0  0  0  0  0  0  0  0  0
    0.0240   43.6200   53.3770 S   0  0  0  0  0  0  0  0  0  0  0  0
  2  1  1  6
  2  3  1  0
  3  4  1  0
  4  5  1  0
  5  6  2  0
  6  7  1  0
  7  8  1  0
  8  9  1  0
  9 10  2  0
 10 11  1  0
 11 12  1  0
 12 13  2  0
 12 14  1  0
 10 15  1  0
 15 16  1  0
 16 17  1  0
  2 18  1  0
 18 19  2  0
 19 20  1  0
 20 21  1  0
 20 22  2  0
 22 23  1  0
 14  5  1  0
 23 18  1  0
 11  7  2  0
 17  9  1  0
M  END
>  <meeko>  (1) 
{"is_sidechain": [false], "free_energy": -8.771, "intermolecular_energy": -10.822, "internal_energy": -0.466}

$$$$
