ligand_5_conformer_3_docked
     RDKit          3D

 22 24  0  0  0  0  0  0  0  0999 V2000
    4.9320   47.8100   54.4010 O   0  0  0  0  0  0  0  0  0  0  0  0
    4.7060   46.5980   54.1350 C   0  0  0  0  0  0  0  0  0  0  0  0
    5.6110   45.8570   53.3000 N   0  0  0  0  0  0  0  0  0  0  0  0
    6.9360   46.3020   52.9610 C   0  0  0  0  0  0  0  0  0  0  0  0
    7.2930   46.4280   51.6100 C   0  0  0  0  0  0  0  0  0  0  0  0
    8.5820   46.8300   51.2530 C   0  0  0  0  0  0  0  0  0  0  0  0
    9.5310   47.0990   52.2410 C   0  0  0  0  0  0  0  0  0  0  0  0
    9.1970   46.9670   53.5980 C   0  0  0  0  0  0  0  0  0  0  0  0
   10.2380   47.2080   54.6620 C   0  0  0  0  0  0  0  0  0  0  0  0
    9.7780   48.2730   55.6570 C   0  0  0  0  0  0  0  0  0  0  0  0
   10.5210   48.1800   56.8410 O   0  0  0  0  0  0  0  0  0  0  0  0
    7.9030   46.5520   53.9520 C   0  0  0  0  0  0  0  0  0  0  0  0
    3.4550   45.9780   54.6010 C   0  0  0  0  0  0  0  0  0  0  0  0
    3.3020   45.3050   55.8120 C   0  0  0  0  0  0  0  0  0  0  0  0
    2.1010   44.6870   55.8650 N   0  0  0  0  0  0  0  0  0  0  0  0
    1.4980   44.9690   54.7010 C   0  0  0  0  0  0  0  0  0  0  0  0
    0.2850   44.5100   54.3090 N   0  0  0  0  0  0  0  0  0  0  0  0
   -0.1840   44.8740   53.0820 C   0  0  0  0  0  0  0  0  0  0  0  0
    0.5480   45.7060   52.2790 N   0  0  0  0  0  0  0  0  0  0  0  0
    1.7670   46.1860   52.6640 C   0  0  0  0  0  0  0  0  0  0  0  0
    2.4220   47.1030   51.8460 O   0  0  0  0  0  0  0  0  0  0  0  0
    2.2720   45.7660   53.9030 C   0  0  0  0  0  0  0  0  0  0  0  0
  1  2  2  0
  2  3  1  0
  3  4  1  0
  4  5  2  0
  5  6  1  0
  6  7  2  0
  7  8  1  0
  8  9  1  0
  9 10  1  0
 10 11  1  0
  8 12  2  0
  2 13  1  0
 13 14  2  0
 14 15  1  0
 15 16  1  0
 16 17  2  0
 17 18  1  0
 18 19  2  0
 19 20  1  0
 20 21  1  0
 20 22  2  0
 12  4  1  0
 22 13  1  0
 22 16  1  0
M  END
>  <meeko>  (1) 
{"is_sidechain": [false], "free_energy": -8.605, "intermolecular_energy": -11.12, "internal_energy": -0.449}

$$$$
