ligand_43_conformer_1_docked
     RDKit          3D

 29 32  0  0  0  0  0  0  0  0999 V2000
    7.0330   42.7830   49.4140 C   0  0  0  0  0  0  0  0  0  0  0  0
    6.4550   41.4430   49.8580 C   0  0  0  0  0  0  0  0  0  0  0  0
    4.9820   41.5540   50.0950 C   0  0  0  0  0  0  0  0  0  0  0  0
    4.0610   40.8270   49.4330 N   0  0  0  0  0  0  0  0  0  0  0  0
    2.9200   41.2180   49.9160 O   0  0  0  0  0  0  0  0  0  0  0  0
    3.1180   42.1430   50.8250 C   0  0  0  0  0  0  0  0  0  0  0  0
    2.0380   42.8160   51.5750 C   0  0  0  0  0  0  0  0  0  0  0  0
    0.8120   43.0840   50.9580 C   0  0  0  0  0  0  0  0  0  0  0  0
   -0.2120   43.7120   51.6690 C   0  0  0  0  0  0  0  0  0  0  0  0
   -0.0330   44.0760   53.0140 C   0  0  0  0  0  0  0  0  0  0  0  0
   -1.1720   44.7260   53.7520 C   0  0  0  0  0  0  0  0  0  0  0  0
    1.2090   43.8230   53.6480 C   0  0  0  0  0  0  0  0  0  0  0  0
    1.4230   44.2000   55.0250 N   0  0  0  0  0  0  0  0  0  0  0  0
    2.1830   45.3810   55.4440 C   0  0  0  0  0  0  0  0  0  0  0  0
    3.3890   45.5800   54.5640 C   0  0  0  0  0  0  0  0  0  0  0  0
    4.5240   44.7740   54.7320 C   0  0  0  0  0  0  0  0  0  0  0  0
    5.6230   44.9130   53.8790 C   0  0  0  0  0  0  0  0  0  0  0  0
    5.5950   45.8560   52.8410 C   0  0  0  0  0  0  0  0  0  0  0  0
    6.7470   45.9870   51.9320 C   0  0  0  0  0  0  0  0  0  0  0  0
    6.5470   45.9540   50.6870 O   0  0  0  0  0  0  0  0  0  0  0  0
    8.0820   46.1830   52.4360 N   0  0  0  0  0  0  0  0  0  0  0  0
    9.2590   46.1150   51.5870 C   0  0  0  0  0  0  0  0  0  0  0  0
   10.3820   46.7700   52.3790 C   0  0  0  0  0  0  0  0  0  0  0  0
    9.8920   46.8490   53.8240 C   0  0  0  0  0  0  0  0  0  0  0  0
    8.3780   46.7050   53.7630 C   0  0  0  0  0  0  0  0  0  0  0  0
    4.4760   46.6910   52.6960 C   0  0  0  0  0  0  0  0  0  0  0  0
    3.3800   46.5550   53.5520 C   0  0  0  0  0  0  0  0  0  0  0  0
    2.2340   43.1990   52.9110 C   0  0  0  0  0  0  0  0  0  0  0  0
    4.4300   42.4040   50.9860 N   0  0  0  0  0  0  0  0  0  0  0  0
  1  2  1  0
  2  3  1  0
  3  4  2  0
  4  5  1  0
  5  6  1  0
  6  7  1  0
  7  8  2  0
  8  9  1  0
  9 10  2  0
 10 11  1  0
 10 12  1  0
 12 13  1  0
 13 14  1  0
 14 15  1  0
 15 16  2  0
 16 17  1  0
 17 18  2  0
 18 19  1  0
 19 20  2  0
 19 21  1  0
 21 22  1  0
 22 23  1  0
 23 24  1  0
 24 25  1  0
 18 26  1  0
 26 27  2  0
 12 28  2  0
  6 29  2  0
 29  3  1  0
 28  7  1  0
 27 15  1  0
 25 21  1  0
M  END
>  <meeko>  (1) 
{"is_sidechain": [false], "free_energy": -9.675, "intermolecular_energy": -13.069, "internal_energy": -0.936}

$$$$
