ligand_76_conformer_2_docked
     RDKit          3D

 23 24  0  0  0  0  0  0  0  0999 V2000
   10.2710   46.2460   51.9470 C   0  0  0  0  0  0  0  0  0  0  0  0
    8.8250   46.4720   52.4040 C   0  0  0  0  0  0  0  0  0  0  0  0
    8.6610   47.3470   53.6820 C   0  0  1  0  0  0  0  0  0  0  0  0
    9.9790   47.3800   54.4820 C   0  0  0  0  0  0  0  0  0  0  0  0
    8.3840   48.6690   53.2790 O   0  0  0  0  0  0  0  0  0  0  0  0
    7.5020   46.8180   54.5750 C   0  0  0  0  0  0  0  0  0  0  0  0
    6.2150   46.6620   53.8190 C   0  0  0  0  0  0  0  0  0  0  0  0
    5.5720   45.4800   53.5200 C   0  0  0  0  0  0  0  0  0  0  0  0
    4.4460   45.8280   52.8740 N   0  0  0  0  0  0  0  0  0  0  0  0
    3.4610   44.9250   52.2920 C   0  0  0  0  0  0  0  0  0  0  0  0
    4.1600   43.7920   51.5890 C   0  0  0  0  0  0  0  0  0  0  0  0
    5.3120   44.0430   50.8290 C   0  0  0  0  0  0  0  0  0  0  0  0
    5.9330   42.9910   50.1420 C   0  0  0  0  0  0  0  0  0  0  0  0
    7.1660   43.2440   49.3240 C   0  0  0  0  0  0  0  0  0  0  0  0
    7.5780   44.5590   49.4580 F   0  0  0  0  0  0  0  0  0  0  0  0
    6.9000   42.9930   47.9900 F   0  0  0  0  0  0  0  0  0  0  0  0
    8.1830   42.4100   49.7500 F   0  0  0  0  0  0  0  0  0  0  0  0
    5.4040   41.7380   50.2100 N   0  0  0  0  0  0  0  0  0  0  0  0
    4.2820   41.4690   50.9280 C   0  0  0  0  0  0  0  0  0  0  0  0
    3.6350   42.4910   51.6270 C   0  0  0  0  0  0  0  0  0  0  0  0
    2.5060   42.2130   52.3270 F   0  0  0  0  0  0  0  0  0  0  0  0
    4.4060   47.1470   52.7720 N   0  0  0  0  0  0  0  0  0  0  0  0
    5.4720   47.6850   53.3510 N   0  0  0  0  0  0  0  0  0  0  0  0
  1  2  1  0
  2  3  1  0
  3  4  1  1
  3  5  1  0
  3  6  1  0
  6  7  1  0
  7  8  2  0
  8  9  1  0
  9 10  1  0
 10 11  1  0
 11 12  2  0
 12 13  1  0
 13 14  1  0
 14 15  1  0
 14 16  1  0
 14 17  1  0
 13 18  2  0
 18 19  1  0
 19 20  2  0
 20 21  1  0
  9 22  1  0
 22 23  2  0
 23  7  1  0
 20 11  1  0
M  END
>  <meeko>  (1) 
{"is_sidechain": [false], "free_energy": -8.647, "intermolecular_energy": -11.933, "internal_energy": -0.67}

$$$$
