ligand_37_conformer_4_docked
     RDKit          3D

 29 31  0  0  0  0  0  0  0  0999 V2000
   11.0290   47.5770   56.3600 C   0  0  0  0  0  0  0  0  0  0  0  0
    9.8690   48.0750   55.7040 O   0  0  0  0  0  0  0  0  0  0  0  0
    9.3000   47.4430   54.5940 C   0  0  0  0  0  0  0  0  0  0  0  0
   10.0760   47.2190   53.4580 C   0  0  0  0  0  0  0  0  0  0  0  0
    9.4890   46.5860   52.3650 C   0  0  0  0  0  0  0  0  0  0  0  0
    8.1870   46.2020   52.4220 N   0  0  0  0  0  0  0  0  0  0  0  0
    7.4330   46.4300   53.5330 C   0  0  0  0  0  0  0  0  0  0  0  0
    6.0520   46.0110   53.5770 N   0  0  0  0  0  0  0  0  0  0  0  0
    5.4900   45.4980   54.8290 C   0  0  0  0  0  0  0  0  0  0  0  0
    5.2860   45.8790   52.3650 C   0  0  0  0  0  0  0  0  0  0  0  0
    4.5100   46.8120   52.0240 O   0  0  0  0  0  0  0  0  0  0  0  0
    5.4110   44.6800   51.5010 C   0  0  0  0  0  0  0  0  0  0  0  0
    4.5740   43.5690   51.7020 C   0  0  0  0  0  0  0  0  0  0  0  0
    4.6880   42.4380   50.8900 C   0  0  0  0  0  0  0  0  0  0  0  0
    5.6470   42.3970   49.8620 C   0  0  0  0  0  0  0  0  0  0  0  0
    5.7910   41.2860   49.0170 O   0  0  0  0  0  0  0  0  0  0  0  0
    5.0340   41.0450   47.8630 C   0  0  0  0  0  0  0  0  0  0  0  0
    5.4720   41.5600   46.6410 C   0  0  0  0  0  0  0  0  0  0  0  0
    4.7340   41.3080   45.4830 C   0  0  0  0  0  0  0  0  0  0  0  0
    3.5520   40.5530   45.5490 C   0  0  0  0  0  0  0  0  0  0  0  0
    2.7730   40.2300   44.3010 C   0  0  0  0  0  0  0  0  0  0  0  0
    2.1530   38.9980   44.4180 F   0  0  0  0  0  0  0  0  0  0  0  0
    1.7980   41.1860   44.0730 F   0  0  0  0  0  0  0  0  0  0  0  0
    3.6350   40.2000   43.2210 F   0  0  0  0  0  0  0  0  0  0  0  0
    3.1670   40.0260   46.7920 C   0  0  0  0  0  0  0  0  0  0  0  0
    3.9050   40.2830   47.9050 N   0  0  0  0  0  0  0  0  0  0  0  0
    6.4570   43.5150   49.6390 C   0  0  0  0  0  0  0  0  0  0  0  0
    6.3450   44.6470   50.4510 C   0  0  0  0  0  0  0  0  0  0  0  0
    7.9990   47.0430   54.6090 N   0  0  0  0  0  0  0  0  0  0  0  0
  1  2  1  0
  2  3  1  0
  3  4  2  0
  4  5  1  0
  5  6  2  0
  6  7  1  0
  7  8  1  0
  8  9  1  0
  8 10  1  0
 10 11  2  0
 10 12  1  0
 12 13  2  0
 13 14  1  0
 14 15  2  0
 15 16  1  0
 16 17  1  0
 17 18  2  0
 18 19  1  0
 19 20  2  0
 20 21  1  0
 21 22  1  0
 21 23  1  0
 21 24  1  0
 20 25  1  0
 25 26  2  0
 15 27  1  0
 27 28  2  0
  7 29  2  0
 29  3  1  0
 28 12  1  0
 26 17  1  0
M  END
>  <meeko>  (1) 
{"is_sidechain": [false], "free_energy": -9.071, "intermolecular_energy": -12.783, "internal_energy": -0.48}

$$$$
