ligand_26_conformer_3_docked
     RDKit          3D

 24 26  0  0  0  0  0  0  0  0999 V2000
    9.2230   47.9610   54.8090 C   0  0  0  0  0  0  0  0  0  0  0  0
    8.8990   47.1640   53.5800 C   0  0  0  0  0  0  0  0  0  0  0  0
    9.8990   46.8660   52.6480 C   0  0  0  0  0  0  0  0  0  0  0  0
    9.5880   46.1610   51.4840 C   0  0  0  0  0  0  0  0  0  0  0  0
    8.2710   45.7500   51.2240 C   0  0  0  0  0  0  0  0  0  0  0  0
    7.9850   44.9880   49.9570 C   0  0  0  0  0  0  0  0  0  0  0  0
    7.2560   46.0360   52.1710 C   0  0  0  0  0  0  0  0  0  0  0  0
    5.5750   45.5250   51.9300 S   0  0  0  0  0  0  0  0  0  0  0  0
    4.7060   46.2370   52.9290 O   0  0  0  0  0  0  0  0  0  0  0  0
    5.1040   45.8610   50.5420 O   0  0  0  0  0  0  0  0  0  0  0  0
    5.4110   43.8130   52.1690 N   0  0  0  0  0  0  0  0  0  0  0  0
    4.9250   42.8990   51.1680 C   0  0  0  0  0  0  0  0  0  0  0  0
    5.8050   42.4450   50.1750 C   0  0  0  0  0  0  0  0  0  0  0  0
    5.3640   41.5680   49.1800 C   0  0  0  0  0  0  0  0  0  0  0  0
    4.0310   41.1280   49.1550 C   0  0  0  0  0  0  0  0  0  0  0  0
    3.5860   40.2020   48.0900 C   0  0  0  0  0  0  0  0  0  0  0  0
    3.7220   40.3500   46.7220 C   0  0  0  0  0  0  0  0  0  0  0  0
    3.1790   39.2800   46.1100 N   0  0  0  0  0  0  0  0  0  0  0  0
    2.7390   38.5220   47.1360 C   0  0  0  0  0  0  0  0  0  0  0  0
    2.0310   37.2230   46.9540 C   0  0  0  0  0  0  0  0  0  0  0  0
    2.9720   39.0650   48.3090 O   0  0  0  0  0  0  0  0  0  0  0  0
    3.1480   41.5830   50.1490 C   0  0  0  0  0  0  0  0  0  0  0  0
    3.5890   42.4580   51.1460 C   0  0  0  0  0  0  0  0  0  0  0  0
    7.5800   46.7660   53.3270 C   0  0  0  0  0  0  0  0  0  0  0  0
  1  2  1  0
  2  3  2  0
  3  4  1  0
  4  5  2  0
  5  6  1  0
  5  7  1  0
  7  8  1  0
  8  9  2  0
  8 10  2  0
  8 11  1  0
 11 12  1  0
 12 13  2  0
 13 14  1  0
 14 15  2  0
 15 16  1  0
 16 17  2  0
 17 18  1  0
 18 19  2  0
 19 20  1  0
 19 21  1  0
 15 22  1  0
 22 23  2  0
  7 24  2  0
 24  2  1  0
 23 12  1  0
 21 16  1  0
M  END
>  <meeko>  (1) 
{"is_sidechain": [false], "free_energy": -9.185, "intermolecular_energy": -11.333, "internal_energy": -0.28}

$$$$
