ligand_27_conformer_2_docked
     RDKit          3D

 27 28  0  0  0  0  0  0  0  0999 V2000
   -1.5860   43.2020   50.2650 C   0  0  0  0  0  0  0  0  0  0  0  0
   -2.1320   42.5020   51.4990 C   0  0  0  0  0  0  0  0  0  0  0  0
   -1.7090   43.1980   52.6660 O   0  0  0  0  0  0  0  0  0  0  0  0
   -0.4870   42.9430   53.2960 C   0  0  0  0  0  0  0  0  0  0  0  0
   -0.2140   41.7820   53.7050 O   0  0  0  0  0  0  0  0  0  0  0  0
    0.4700   44.0500   53.4820 C   0  0  0  0  0  0  0  0  0  0  0  0
    1.3770   44.4590   52.5210 C   0  0  0  0  0  0  0  0  0  0  0  0
    2.0400   45.5410   53.0590 C   0  0  0  0  0  0  0  0  0  0  0  0
    3.2640   46.5050   52.2500 S   0  0  0  0  0  0  0  0  0  0  0  0
    3.0970   46.4170   50.7590 O   0  0  0  0  0  0  0  0  0  0  0  0
    3.0850   47.9400   52.6620 O   0  0  0  0  0  0  0  0  0  0  0  0
    4.8570   45.9830   52.7090 N   0  0  0  0  0  0  0  0  0  0  0  0
    5.8490   45.5230   51.7670 C   0  0  0  0  0  0  0  0  0  0  0  0
    5.6320   44.3300   51.0500 C   0  0  0  0  0  0  0  0  0  0  0  0
    6.5730   43.8590   50.1360 C   0  0  0  0  0  0  0  0  0  0  0  0
    7.7450   44.5740   49.9090 C   0  0  0  0  0  0  0  0  0  0  0  0
    8.6610   44.1100   49.0240 F   0  0  0  0  0  0  0  0  0  0  0  0
    7.9740   45.7680   50.5900 C   0  0  0  0  0  0  0  0  0  0  0  0
    7.0370   46.2660   51.5130 C   0  0  0  0  0  0  0  0  0  0  0  0
    7.3930   47.5390   52.2500 C   0  0  0  0  0  0  0  0  0  0  0  0
    8.2340   47.1760   53.7840 S   0  0  0  0  0  0  0  0  0  0  0  0
    9.6560   46.1500   53.5010 C   0  0  0  0  0  0  0  0  0  0  0  0
    7.2860   46.4610   54.7040 O   0  0  0  0  0  0  0  0  0  0  0  0
    8.6720   48.4600   54.4320 O   0  0  0  0  0  0  0  0  0  0  0  0
    1.5370   45.7480   54.3260 C   0  0  0  0  0  0  0  0  0  0  0  0
    0.5770   44.8370   54.5820 N   0  0  0  0  0  0  0  0  0  0  0  0
   -0.1990   44.7590   55.8180 C   0  0  0  0  0  0  0  0  0  0  0  0
  1  2  1  0
  2  3  1  0
  3  4  1  0
  4  5  2  0
  4  6  1  0
  6  7  2  0
  7  8  1  0
  8  9  1  0
  9 10  2  0
  9 11  2  0
  9 12  1  0
 12 13  1  0
 13 14  2  0
 14 15  1  0
 15 16  2  0
 16 17  1  0
 16 18  1  0
 18 19  2  0
 19 20  1  0
 20 21  1  0
 21 22  1  0
 21 23  2  0
 21 24  2  0
  8 25  2  0
 25 26  1  0
 26 27  1  0
 26  6  1  0
 19 13  1  0
M  END
>  <meeko>  (1) 
{"is_sidechain": [false], "free_energy": -8.043, "intermolecular_energy": -11.804, "internal_energy": -0.97}

$$$$
