ligand_28_conformer_3_docked
     RDKit          3D

 32 37  0  0  0  0  0  0  0  0999 V2000
    9.9010   47.2020   54.4560 C   0  0  0  0  0  0  0  0  0  0  0  0
    9.6660   46.6790   53.0760 C   0  0  0  0  0  0  0  0  0  0  0  0
   10.6320   46.4070   52.1100 C   0  0  0  0  0  0  0  0  0  0  0  0
   10.0610   45.8660   51.0080 N   0  0  0  0  0  0  0  0  0  0  0  0
    8.7490   45.7900   51.2830 C   0  0  0  0  0  0  0  0  0  0  0  0
    7.7920   45.2810   50.4710 N   0  0  0  0  0  0  0  0  0  0  0  0
    6.4990   45.2480   50.9090 C   0  0  0  0  0  0  0  0  0  0  0  0
    6.1480   45.7380   52.1970 C   0  0  0  0  0  0  0  0  0  0  0  0
    4.7380   45.6770   52.6540 C   0  0  0  0  0  0  0  0  0  0  0  0
    4.0530   46.7370   52.6850 O   0  0  0  0  0  0  0  0  0  0  0  0
    4.1400   44.4400   53.0690 N   0  0  0  0  0  0  0  0  0  0  0  0
    2.7130   44.3600   53.3630 C   0  0  1  0  0  0  0  0  0  0  0  0
    1.8250   44.3900   52.1250 C   0  0  2  0  0  0  0  0  0  0  0  0
    0.3710   44.7690   52.3670 C   0  0  0  0  0  0  0  0  0  0  0  0
   -0.1930   43.7140   53.1960 N   0  0  0  0  0  0  0  0  0  0  0  0
   -1.4800   43.8310   53.8280 C   0  0  0  0  0  0  0  0  0  0  0  0
   -2.4160   43.0570   53.4860 O   0  0  0  0  0  0  0  0  0  0  0  0
   -1.7410   44.8530   54.8600 C   0  0  0  0  0  0  0  0  0  0  0  0
   -3.0240   45.4530   54.9490 C   0  0  0  0  0  0  0  0  0  0  0  0
   -3.2920   46.4280   55.9260 C   0  0  0  0  0  0  0  0  0  0  0  0
   -2.2690   46.7680   56.8040 C   0  0  0  0  0  0  0  0  0  0  0  0
   -2.3130   47.6770   57.7960 N   0  0  0  0  0  0  0  0  0  0  0  0
   -1.0640   47.6040   58.3240 C   0  0  0  0  0  0  0  0  0  0  0  0
   -0.6450   48.4290   59.4130 N   0  0  0  0  0  0  0  0  0  0  0  0
   -0.2620   46.6950   57.7130 N   0  0  0  0  0  0  0  0  0  0  0  0
    1.1420   46.4100   58.0150 C   0  0  0  0  0  0  0  0  0  0  0  0
   -1.0370   46.1800   56.7420 C   0  0  0  0  0  0  0  0  0  0  0  0
   -0.7320   45.2130   55.7820 C   0  0  0  0  0  0  0  0  0  0  0  0
    0.7690   42.6680   53.5150 C   0  0  0  0  0  0  0  0  0  0  0  0
    2.0750   43.0750   52.8530 C   0  0  2  0  0  0  0  0  0  0  0  0
    7.1700   46.2530   53.0310 C   0  0  0  0  0  0  0  0  0  0  0  0
    8.4670   46.2680   52.5300 C   0  0  0  0  0  0  0  0  0  0  0  0
  1  2  1  0
  2  3  2  0
  3  4  1  0
  4  5  1  0
  5  6  2  0
  6  7  1  0
  7  8  2  0
  8  9  1  0
  9 10  2  0
  9 11  1  0
 12 11  1  6
 12 13  1  0
 13 14  1  1
 14 15  1  0
 15 16  1  0
 16 17  2  0
 16 18  1  0
 18 19  2  0
 19 20  1  0
 20 21  2  0
 21 22  1  0
 22 23  2  0
 23 24  1  0
 23 25  1  0
 25 26  1  0
 25 27  1  0
 27 28  2  0
 15 29  1  0
 30 29  1  1
  8 31  1  0
 31 32  2  0
 32  2  1  0
 32  5  1  0
 30 12  1  0
 30 13  1  0
 28 18  1  0
 27 21  1  0
M  END
>  <meeko>  (1) 
{"is_sidechain": [false], "free_energy": -9.564, "intermolecular_energy": -12.08, "internal_energy": -0.762}

$$$$
