ligand_94_conformer_3_docked
     RDKit          3D

 26 29  0  0  0  0  0  0  0  0999 V2000
   -2.8550   43.0040   57.8000 C   0  0  0  0  0  0  0  0  0  0  0  0
   -2.4760   44.4080   57.5660 N   0  0  0  0  0  0  0  0  0  0  0  0
   -3.5910   45.2080   56.9920 C   0  0  0  0  0  0  0  0  0  0  0  0
   -3.3820   45.6230   55.5210 C   0  0  0  0  0  0  0  0  0  0  0  0
   -2.7140   44.5050   54.7230 C   0  0  0  0  0  0  0  0  0  0  0  0
   -1.3430   44.1000   55.3360 C   0  0  1  0  0  0  0  0  0  0  0  0
   -0.1600   44.5480   54.5500 N   0  0  0  0  0  0  0  0  0  0  0  0
    0.7120   45.5300   55.2330 C   0  0  0  0  0  0  0  0  0  0  0  0
    2.0140   45.6910   54.4480 C   0  0  0  0  0  0  0  0  0  0  0  0
    1.7250   46.0150   53.0460 N   0  0  0  0  0  0  0  0  0  0  0  0
    2.6850   46.7980   52.3090 C   0  0  0  0  0  0  0  0  0  0  0  0
    3.1550   47.8490   52.8240 O   0  0  0  0  0  0  0  0  0  0  0  0
    3.2220   46.3390   50.9810 C   0  0  0  0  0  0  0  0  0  0  0  0
    4.6290   45.8570   51.1480 C   0  0  0  0  0  0  0  0  0  0  0  0
    5.1560   44.7830   50.4350 C   0  0  0  0  0  0  0  0  0  0  0  0
    6.7790   44.6390   50.8500 S   0  0  0  0  0  0  0  0  0  0  0  0
    6.7430   45.9500   51.9060 C   0  0  0  0  0  0  0  0  0  0  0  0
    7.8910   46.4620   52.6650 C   0  0  0  0  0  0  0  0  0  0  0  0
    9.2160   46.4410   52.2440 C   0  0  0  0  0  0  0  0  0  0  0  0
   10.1000   46.9920   53.1790 C   0  0  0  0  0  0  0  0  0  0  0  0
    9.4770   47.4460   54.3350 C   0  0  0  0  0  0  0  0  0  0  0  0
    7.8260   47.1610   54.1930 S   0  0  0  0  0  0  0  0  0  0  0  0
    5.5130   46.5050   51.9540 N   0  0  0  0  0  0  0  0  0  0  0  0
    0.7090   45.2210   52.3420 C   0  0  0  0  0  0  0  0  0  0  0  0
   -0.5380   45.0480   53.2130 C   0  0  0  0  0  0  0  0  0  0  0  0
   -1.2060   44.5300   56.8210 C   0  0  0  0  0  0  0  0  0  0  0  0
  1  2  1  0
  2  3  1  0
  3  4  1  0
  4  5  1  0
  5  6  1  0
  6  7  1  6
  7  8  1  0
  8  9  1  0
  9 10  1  0
 10 11  1  0
 11 12  2  0
 11 13  1  0
 13 14  1  0
 14 15  2  0
 15 16  1  0
 16 17  1  0
 17 18  1  0
 18 19  2  0
 19 20  1  0
 20 21  2  0
 21 22  1  0
 17 23  2  0
 10 24  1  0
 24 25  1  0
  6 26  1  0
 26  2  1  0
 25  7  1  0
 23 14  1  0
 22 18  1  0
M  END
>  <meeko>  (1) 
{"is_sidechain": [false], "free_energy": -8.291, "intermolecular_energy": -10.229, "internal_energy": -0.264}

$$$$
