ligand_74_conformer_3_docked
     RDKit          3D

 26 29  0  0  0  0  0  0  0  0999 V2000
   -2.1350   43.7750   56.3960 C   0  0  0  0  0  0  0  0  0  0  0  0
   -2.5720   44.3650   55.0580 C   0  0  1  0  0  0  0  0  0  0  0  0
   -1.3960   44.5620   54.0830 C   0  0  0  0  0  0  0  0  0  0  0  0
   -1.8170   43.7170   52.9260 C   0  0  0  0  0  0  0  0  0  0  0  0
   -0.9650   43.4890   51.7040 C   0  0  0  0  0  0  0  0  0  0  0  0
    0.2350   42.6250   51.9570 C   0  0  0  0  0  0  0  0  0  0  0  0
    1.2400   43.6620   51.6670 N   0  0  0  0  0  0  0  0  0  0  0  0
    2.6630   43.7720   51.6430 C   0  0  0  0  0  0  0  0  0  0  0  0
    3.3650   42.7680   51.9340 O   0  0  0  0  0  0  0  0  0  0  0  0
    3.2740   45.0200   51.2870 N   0  0  0  0  0  0  0  0  0  0  0  0
    4.6880   45.2540   51.3210 C   0  0  0  0  0  0  0  0  0  0  0  0
    5.3720   45.7910   52.3930 C   0  0  0  0  0  0  0  0  0  0  0  0
    6.6880   45.8240   51.9690 C   0  0  0  0  0  0  0  0  0  0  0  0
    7.8290   46.3170   52.7760 C   0  0  0  0  0  0  0  0  0  0  0  0
    7.5920   46.9560   54.0060 C   0  0  0  0  0  0  0  0  0  0  0  0
    8.6600   47.4420   54.7670 C   0  0  0  0  0  0  0  0  0  0  0  0
    9.9710   47.3030   54.3050 C   0  0  0  0  0  0  0  0  0  0  0  0
   11.0050   47.7760   55.0430 F   0  0  0  0  0  0  0  0  0  0  0  0
   10.2160   46.6840   53.0750 C   0  0  0  0  0  0  0  0  0  0  0  0
    9.1510   46.1980   52.3100 C   0  0  0  0  0  0  0  0  0  0  0  0
    6.7520   45.3030   50.7190 N   0  0  0  0  0  0  0  0  0  0  0  0
    7.9400   45.0910   49.8980 C   0  0  0  0  0  0  0  0  0  0  0  0
    5.5370   44.9640   50.3170 N   0  0  0  0  0  0  0  0  0  0  0  0
    0.0770   44.5330   51.4240 C   0  0  0  0  0  0  0  0  0  0  0  0
   -2.9240   43.0970   53.1440 N   0  0  0  0  0  0  0  0  0  0  0  0
   -3.4140   43.4500   54.3740 O   0  0  0  0  0  0  0  0  0  0  0  0
  2  1  1  1
  2  3  1  0
  3  4  1  0
  4  5  1  0
  5  6  1  0
  6  7  1  0
  7  8  1  0
  8  9  2  0
  8 10  1  0
 10 11  1  0
 11 12  1  0
 12 13  2  0
 13 14  1  0
 14 15  2  0
 15 16  1  0
 16 17  2  0
 17 18  1  0
 17 19  1  0
 19 20  2  0
 13 21  1  0
 21 22  1  0
 21 23  1  0
  7 24  1  0
  4 25  2  0
 25 26  1  0
 26  2  1  0
 24  5  1  0
 23 11  2  0
 20 14  1  0
M  END
>  <meeko>  (1) 
{"is_sidechain": [false], "free_energy": -8.896, "intermolecular_energy": -10.457, "internal_energy": 0.073}

$$$$
