ligand_19_conformer_3_docked
     RDKit          3D

 28 31  0  0  0  0  0  0  0  0999 V2000
    8.7710   48.2970   55.0670 O   0  0  0  0  0  0  0  0  0  0  0  0
    9.0360   47.7390   53.9710 C   0  0  0  0  0  0  0  0  0  0  0  0
   10.1580   46.8000   53.7730 C   0  0  0  0  0  0  0  0  0  0  0  0
   10.0820   46.4670   52.2740 C   0  0  0  0  0  0  0  0  0  0  0  0
    8.8130   47.1590   51.7110 C   0  0  1  0  0  0  0  0  0  0  0  0
    7.7890   46.1580   51.2220 C   0  0  0  0  0  0  0  0  0  0  0  0
    8.1290   45.2330   50.2230 C   0  0  0  0  0  0  0  0  0  0  0  0
    7.1980   44.2860   49.7910 C   0  0  0  0  0  0  0  0  0  0  0  0
    5.9180   44.2560   50.3470 C   0  0  0  0  0  0  0  0  0  0  0  0
    5.5510   45.1800   51.3360 C   0  0  0  0  0  0  0  0  0  0  0  0
    4.2340   45.1130   51.9110 N   0  0  0  0  0  0  0  0  0  0  0  0
    3.9380   44.4740   53.1650 C   0  0  0  0  0  0  0  0  0  0  0  0
    4.8730   44.1930   53.9650 O   0  0  0  0  0  0  0  0  0  0  0  0
    2.5380   44.1780   53.5400 C   0  0  0  0  0  0  0  0  0  0  0  0
    1.8600   44.9630   54.4880 C   0  0  0  0  0  0  0  0  0  0  0  0
    0.5410   44.6510   54.8210 C   0  0  0  0  0  0  0  0  0  0  0  0
   -0.0940   43.5520   54.2230 C   0  0  0  0  0  0  0  0  0  0  0  0
   -1.4230   43.2070   54.5110 O   0  0  0  0  0  0  0  0  0  0  0  0
   -2.2930   43.9390   55.3320 C   0  0  0  0  0  0  0  0  0  0  0  0
   -2.3960   43.5900   56.6850 C   0  0  0  0  0  0  0  0  0  0  0  0
   -3.2410   44.3060   57.5390 C   0  0  0  0  0  0  0  0  0  0  0  0
   -3.9790   45.3860   57.0480 C   0  0  0  0  0  0  0  0  0  0  0  0
   -3.8680   45.7560   55.7050 C   0  0  0  0  0  0  0  0  0  0  0  0
   -3.0250   45.0400   54.8480 C   0  0  0  0  0  0  0  0  0  0  0  0
    0.6090   42.8070   53.2740 C   0  0  0  0  0  0  0  0  0  0  0  0
    1.8930   43.1280   52.9630 N   0  0  0  0  0  0  0  0  0  0  0  0
    6.5010   46.1140   51.7870 C   0  0  0  0  0  0  0  0  0  0  0  0
    8.2700   47.9440   52.8060 N   0  0  0  0  0  0  0  0  0  0  0  0
  1  2  2  0
  2  3  1  0
  3  4  1  0
  4  5  1  0
  5  6  1  1
  6  7  2  0
  7  8  1  0
  8  9  2  0
  9 10  1  0
 10 11  1  0
 11 12  1  0
 12 13  2  0
 12 14  1  0
 14 15  2  0
 15 16  1  0
 16 17  2  0
 17 18  1  0
 18 19  1  0
 19 20  2  0
 20 21  1  0
 21 22  2  0
 22 23  1  0
 23 24  2  0
 17 25  1  0
 25 26  2  0
 10 27  2  0
  5 28  1  0
 28  2  1  0
 27  6  1  0
 26 14  1  0
 24 19  1  0
M  END
>  <meeko>  (1) 
{"is_sidechain": [false], "free_energy": -9.626, "intermolecular_energy": -12.44, "internal_energy": -0.841}

$$$$
