ligand_81_conformer_3_docked
     RDKit          3D

 31 33  0  0  0  0  0  0  0  0999 V2000
    3.0730   44.9840   51.5500 O   0  0  0  0  0  0  0  0  0  0  0  0
    3.6480   43.9480   51.9820 C   0  0  0  0  0  0  0  0  0  0  0  0
    3.0110   43.1220   52.9680 N   0  0  0  0  0  0  0  0  0  0  0  0
    1.6320   43.2480   53.3570 C   0  0  0  0  0  0  0  0  0  0  0  0
    0.6330   42.7310   52.5210 C   0  0  0  0  0  0  0  0  0  0  0  0
   -0.7140   42.8650   52.8610 C   0  0  0  0  0  0  0  0  0  0  0  0
   -1.0780   43.5260   54.0370 C   0  0  0  0  0  0  0  0  0  0  0  0
   -0.0950   44.0630   54.8860 C   0  0  0  0  0  0  0  0  0  0  0  0
   -0.4910   44.7800   56.1220 C   0  0  0  0  0  0  0  0  0  0  0  0
   -1.5320   44.4190   56.7380 O   0  0  0  0  0  0  0  0  0  0  0  0
    0.3150   45.8520   56.6440 N   0  0  0  0  0  0  0  0  0  0  0  0
   -0.1460   46.7980   57.6230 C   0  0  0  0  0  0  0  0  0  0  0  0
   -1.3640   47.4660   57.4330 C   0  0  0  0  0  0  0  0  0  0  0  0
   -1.8110   48.3720   58.3960 C   0  0  0  0  0  0  0  0  0  0  0  0
   -1.0460   48.6010   59.5420 C   0  0  0  0  0  0  0  0  0  0  0  0
   -1.5940   49.7350   60.7630 Cl  0  0  0  0  0  0  0  0  0  0  0  0
    0.1590   47.9140   59.7050 C   0  0  0  0  0  0  0  0  0  0  0  0
    0.5770   47.0370   58.7550 N   0  0  0  0  0  0  0  0  0  0  0  0
    1.2600   43.9350   54.5280 C   0  0  0  0  0  0  0  0  0  0  0  0
    4.9640   43.6130   51.5190 N   0  0  0  0  0  0  0  0  0  0  0  0
    5.6790   44.4380   50.5380 C   0  0  2  0  0  0  0  0  0  0  0  0
    6.5180   43.5660   49.5900 C   0  0  0  0  0  0  0  0  0  0  0  0
    6.2210   42.2070   49.7680 O   0  0  0  0  0  0  0  0  0  0  0  0
    6.5480   45.4710   51.2280 C   0  0  0  0  0  0  0  0  0  0  0  0
    5.9810   46.4650   52.0490 C   0  0  0  0  0  0  0  0  0  0  0  0
    6.7970   47.3960   52.6960 C   0  0  0  0  0  0  0  0  0  0  0  0
    8.1840   47.3430   52.5420 C   0  0  0  0  0  0  0  0  0  0  0  0
    8.9660   48.2520   53.1760 F   0  0  0  0  0  0  0  0  0  0  0  0
    8.7610   46.3500   51.7400 C   0  0  0  0  0  0  0  0  0  0  0  0
   10.5040   46.2680   51.5460 Cl  0  0  0  0  0  0  0  0  0  0  0  0
    7.9460   45.4160   51.0900 C   0  0  0  0  0  0  0  0  0  0  0  0
  1  2  2  0
  2  3  1  0
  3  4  1  0
  4  5  2  0
  5  6  1  0
  6  7  2  0
  7  8  1  0
  8  9  1  0
  9 10  2  0
  9 11  1  0
 11 12  1  0
 12 13  2  0
 13 14  1  0
 14 15  2  0
 15 16  1  0
 15 17  1  0
 17 18  2  0
  8 19  2  0
  2 20  1  0
 20 21  1  0
 21 22  1  1
 22 23  1  0
 21 24  1  0
 24 25  2  0
 25 26  1  0
 26 27  2  0
 27 28  1  0
 27 29  1  0
 29 30  1  0
 29 31  2  0
 19  4  1  0
 31 24  1  0
 18 12  1  0
M  END
>  <meeko>  (1) 
{"is_sidechain": [false], "free_energy": -9.141, "intermolecular_energy": -12.615, "internal_energy": -0.519}

$$$$
