ligand_40_conformer_3_docked
     RDKit          3D

 24 27  0  0  0  0  0  0  0  0999 V2000
    4.2000   44.8790   54.6650 O   0  0  0  0  0  0  0  0  0  0  0  0
    3.1800   45.0390   53.5740 S   0  0  0  0  0  0  0  0  0  0  0  0
    3.4920   46.2120   52.6880 O   0  0  0  0  0  0  0  0  0  0  0  0
    1.5470   45.1330   54.2240 C   0  0  0  0  0  0  0  0  0  0  0  0
    0.9840   43.7190   54.0520 C   0  0  0  0  0  0  0  0  0  0  0  0
    1.6660   43.0190   52.8560 C   0  0  0  0  0  0  0  0  0  0  0  0
    2.9980   43.5900   52.6680 N   0  0  0  0  0  0  0  0  0  0  0  0
    3.9760   43.0890   51.7290 C   0  0  0  0  0  0  0  0  0  0  0  0
    3.8720   41.7870   51.2030 C   0  0  0  0  0  0  0  0  0  0  0  0
    4.8140   41.3110   50.2880 C   0  0  0  0  0  0  0  0  0  0  0  0
    5.8720   42.1240   49.8810 C   0  0  0  0  0  0  0  0  0  0  0  0
    5.9980   43.4240   50.3910 C   0  0  0  0  0  0  0  0  0  0  0  0
    7.1230   44.3170   49.9390 C   0  0  0  0  0  0  0  0  0  0  0  0
    7.0390   45.6140   50.6070 N   0  0  0  0  0  0  0  0  0  0  0  0
    8.0130   46.0460   51.5690 C   0  0  0  0  0  0  0  0  0  0  0  0
    9.3490   46.0310   51.2750 N   0  0  0  0  0  0  0  0  0  0  0  0
   10.2890   46.4440   52.1830 C   0  0  0  0  0  0  0  0  0  0  0  0
    9.9120   46.8890   53.4200 N   0  0  0  0  0  0  0  0  0  0  0  0
    8.5900   46.9050   53.7150 C   0  0  0  0  0  0  0  0  0  0  0  0
    8.0320   47.3100   54.8680 N   0  0  0  0  0  0  0  0  0  0  0  0
    6.7050   47.1270   54.6290 C   0  0  0  0  0  0  0  0  0  0  0  0
    6.4370   46.6340   53.3940 N   0  0  0  0  0  0  0  0  0  0  0  0
    7.6460   46.5000   52.8340 C   0  0  0  0  0  0  0  0  0  0  0  0
    5.0500   43.9010   51.3090 C   0  0  0  0  0  0  0  0  0  0  0  0
  1  2  2  0
  2  3  2  0
  2  4  1  0
  4  5  1  0
  5  6  1  0
  6  7  1  0
  7  8  1  0
  8  9  2  0
  9 10  1  0
 10 11  2  0
 11 12  1  0
 12 13  1  0
 13 14  1  0
 14 15  1  0
 15 16  2  0
 16 17  1  0
 17 18  2  0
 18 19  1  0
 19 20  1  0
 20 21  2  0
 21 22  1  0
 22 23  1  0
 12 24  2  0
  7  2  1  0
 24  8  1  0
 23 15  1  0
 23 19  2  0
M  END
>  <meeko>  (1) 
{"is_sidechain": [false], "free_energy": -8.945, "intermolecular_energy": -11.037, "internal_energy": -1.097}

$$$$
