ligand_66_conformer_5_docked
     RDKit          3D

 21 22  0  0  0  0  0  0  0  0999 V2000
    5.4080   42.1770   50.3310 C   0  0  0  0  0  0  0  0  0  0  0  0
    4.2380   41.2040   50.4610 C   0  0  0  0  0  0  0  0  0  0  0  0
    2.9330   41.9190   50.8340 C   0  0  0  0  0  0  0  0  0  0  0  0
    3.1620   43.3280   51.1560 N   0  0  0  0  0  0  0  0  0  0  0  0
    2.0830   44.2710   51.1940 C   0  0  0  0  0  0  0  0  0  0  0  0
    0.9070   43.8880   50.9470 O   0  0  0  0  0  0  0  0  0  0  0  0
    2.3630   45.7080   51.5790 C   0  0  0  0  0  0  0  0  0  0  0  0
    3.6400   46.2290   50.8870 C   0  0  0  0  0  0  0  0  0  0  0  0
    4.9100   45.6930   51.5530 C   0  0  0  0  0  0  0  0  0  0  0  0
    4.8670   45.9960   52.9870 N   0  0  0  0  0  0  0  0  0  0  0  0
    5.6890   47.0430   53.5370 C   0  0  0  0  0  0  0  0  0  0  0  0
    5.1550   47.9370   54.2500 O   0  0  0  0  0  0  0  0  0  0  0  0
    7.1500   47.0840   53.2910 C   0  0  0  0  0  0  0  0  0  0  0  0
    7.6610   47.0130   51.9820 C   0  0  0  0  0  0  0  0  0  0  0  0
    9.0390   47.0430   51.7580 C   0  0  0  0  0  0  0  0  0  0  0  0
    9.9230   47.1340   52.8360 C   0  0  0  0  0  0  0  0  0  0  0  0
    9.4290   47.1930   54.1420 C   0  0  0  0  0  0  0  0  0  0  0  0
   10.5400   47.3030   55.4950 Cl  0  0  0  0  0  0  0  0  0  0  0  0
    8.0490   47.1640   54.3710 C   0  0  0  0  0  0  0  0  0  0  0  0
    3.7300   45.4710   53.7470 C   0  0  0  0  0  0  0  0  0  0  0  0
    2.4110   45.9400   53.1110 C   0  0  0  0  0  0  0  0  0  0  0  0
  1  2  1  0
  2  3  1  0
  3  4  1  0
  4  5  1  0
  5  6  2  0
  5  7  1  0
  7  8  1  0
  8  9  1  0
  9 10  1  0
 10 11  1  0
 11 12  2  0
 11 13  1  0
 13 14  2  0
 14 15  1  0
 15 16  2  0
 16 17  1  0
 17 18  1  0
 17 19  2  0
 10 20  1  0
 20 21  1  0
 21  7  1  0
 19 13  1  0
M  END
>  <meeko>  (1) 
{"is_sidechain": [false], "free_energy": -8.843, "intermolecular_energy": -10.91, "internal_energy": 0.323}

$$$$
