ligand_55_conformer_1_docked
     RDKit          3D

 23 25  0  0  0  0  0  0  0  0999 V2000
    0.3060   42.4290   53.4900 O   0  0  0  0  0  0  0  0  0  0  0  0
    1.4050   43.0250   53.3310 C   0  0  0  0  0  0  0  0  0  0  0  0
    1.5730   44.4180   53.8640 C   0  0  0  0  0  0  0  0  0  0  0  0
    3.0470   44.7510   54.0990 C   0  0  0  0  0  0  0  0  0  0  0  0
    3.8880   44.4110   52.8610 C   0  0  1  0  0  0  0  0  0  0  0  0
    5.2770   44.8300   53.0800 N   0  0  0  0  0  0  0  0  0  0  0  0
    5.7470   46.1500   52.7610 C   0  0  0  0  0  0  0  0  0  0  0  0
    4.9410   47.0210   52.3340 O   0  0  0  0  0  0  0  0  0  0  0  0
    7.1810   46.4930   52.8770 C   0  0  0  0  0  0  0  0  0  0  0  0
    7.7080   46.8770   54.1200 C   0  0  0  0  0  0  0  0  0  0  0  0
    9.0570   47.2130   54.2360 C   0  0  0  0  0  0  0  0  0  0  0  0
    9.8760   47.1550   53.1090 C   0  0  0  0  0  0  0  0  0  0  0  0
    9.3610   46.7650   51.9140 N   0  0  0  0  0  0  0  0  0  0  0  0
    8.0480   46.4360   51.7690 C   0  0  0  0  0  0  0  0  0  0  0  0
    7.6100   46.0080   50.5590 F   0  0  0  0  0  0  0  0  0  0  0  0
    3.8310   42.8890   52.5850 C   0  0  2  0  0  0  0  0  0  0  0  0
    4.5160   42.5600   51.2750 C   0  0  0  0  0  0  0  0  0  0  0  0
    4.1210   41.4320   50.5360 C   0  0  0  0  0  0  0  0  0  0  0  0
    4.7910   41.0870   49.3590 C   0  0  0  0  0  0  0  0  0  0  0  0
    5.8640   41.8620   48.9110 C   0  0  0  0  0  0  0  0  0  0  0  0
    6.2700   42.9810   49.6420 C   0  0  0  0  0  0  0  0  0  0  0  0
    5.6050   43.3280   50.8210 C   0  0  0  0  0  0  0  0  0  0  0  0
    2.4480   42.3980   52.5730 N   0  0  0  0  0  0  0  0  0  0  0  0
  1  2  2  0
  2  3  1  0
  3  4  1  0
  4  5  1  0
  5  6  1  1
  6  7  1  0
  7  8  2  0
  7  9  1  0
  9 10  2  0
 10 11  1  0
 11 12  2  0
 12 13  1  0
 13 14  2  0
 14 15  1  0
  5 16  1  0
 16 17  1  6
 17 18  2  0
 18 19  1  0
 19 20  2  0
 20 21  1  0
 21 22  2  0
 16 23  1  0
 23  2  1  0
 14  9  1  0
 22 17  1  0
M  END
>  <meeko>  (1) 
{"is_sidechain": [false], "free_energy": -9.68, "intermolecular_energy": -11.377, "internal_energy": -0.129}

$$$$
