ligand_83_conformer_2_docked
     RDKit          3D

 23 26  0  0  0  0  0  0  0  0999 V2000
    5.4310   46.6070   54.7190 C   0  0  0  0  0  0  0  0  0  0  0  0
    5.2580   46.2010   53.2500 C   0  0  2  0  0  0  0  0  0  0  0  0
    5.3570   44.6680   53.1100 C   0  0  0  0  0  0  0  0  0  0  0  0
    5.1960   44.1850   51.7280 N   0  0  0  0  0  0  0  0  0  0  0  0
    4.2580   43.1160   51.5150 C   0  0  0  0  0  0  0  0  0  0  0  0
    4.6350   42.0580   50.9410 O   0  0  0  0  0  0  0  0  0  0  0  0
    2.8610   43.2420   51.9560 C   0  0  0  0  0  0  0  0  0  0  0  0
    2.0140   44.3280   51.6490 C   0  0  0  0  0  0  0  0  0  0  0  0
    0.8580   43.9880   52.3040 C   0  0  0  0  0  0  0  0  0  0  0  0
   -0.3310   44.4880   52.4960 O   0  0  0  0  0  0  0  0  0  0  0  0
   -0.9520   43.6070   53.2810 C   0  0  0  0  0  0  0  0  0  0  0  0
   -2.7450   43.8220   53.8950 Br  0  0  0  0  0  0  0  0  0  0  0  0
   -0.1230   42.5140   53.5960 C   0  0  0  0  0  0  0  0  0  0  0  0
    1.0200   42.8400   52.9200 C   0  0  0  0  0  0  0  0  0  0  0  0
    2.2420   42.3250   52.7540 N   0  0  0  0  0  0  0  0  0  0  0  0
    5.6400   44.9660   50.5550 C   0  0  0  0  0  0  0  0  0  0  0  0
    7.1170   45.4090   50.6320 C   0  0  0  0  0  0  0  0  0  0  0  0
    7.4170   46.0670   51.9270 N   0  0  0  0  0  0  0  0  0  0  0  0
    8.6950   46.8320   51.9910 C   0  0  0  0  0  0  0  0  0  0  0  0
    8.7580   47.9020   53.0830 C   0  0  0  0  0  0  0  0  0  0  0  0
    9.9420   47.1760   53.7150 C   0  0  0  0  0  0  0  0  0  0  0  0
    9.8850   46.1070   52.6290 C   0  0  0  0  0  0  0  0  0  0  0  0
    6.3030   46.9390   52.3720 C   0  0  0  0  0  0  0  0  0  0  0  0
  2  1  1  1
  2  3  1  0
  3  4  1  0
  4  5  1  0
  5  6  2  0
  5  7  1  0
  7  8  2  0
  8  9  1  0
  9 10  1  0
 10 11  1  0
 11 12  1  0
 11 13  2  0
 13 14  1  0
 14 15  1  0
  4 16  1  0
 16 17  1  0
 17 18  1  0
 18 19  1  0
 19 20  1  0
 20 21  1  0
 21 22  1  0
 18 23  1  0
 23  2  1  0
 15  7  1  0
 22 19  1  0
 14  9  2  0
M  END
>  <meeko>  (1) 
{"is_sidechain": [false], "free_energy": -6.855, "intermolecular_energy": -10.462, "internal_energy": -0.16}

$$$$
