ligand_11_conformer_2_docked
     RDKit          3D

 26 28  0  0  0  0  0  0  0  0999 V2000
    4.7810   44.1610   52.8450 O   0  0  0  0  0  0  0  0  0  0  0  0
    5.3890   44.0520   51.7460 C   0  0  0  0  0  0  0  0  0  0  0  0
    6.3840   45.0230   51.3810 N   0  0  0  0  0  0  0  0  0  0  0  0
    7.0730   45.8550   52.3320 C   0  0  0  0  0  0  0  0  0  0  0  0
    6.6120   45.9970   53.6530 C   0  0  0  0  0  0  0  0  0  0  0  0
    7.3150   46.7910   54.5640 C   0  0  0  0  0  0  0  0  0  0  0  0
    8.4900   47.4460   54.1800 C   0  0  0  0  0  0  0  0  0  0  0  0
    9.1540   48.2330   55.1340 O   0  0  0  0  0  0  0  0  0  0  0  0
   10.4460   47.9470   55.6650 C   0  0  0  0  0  0  0  0  0  0  0  0
   10.4870   48.2760   57.0090 F   0  0  0  0  0  0  0  0  0  0  0  0
   10.7030   46.5980   55.5260 F   0  0  0  0  0  0  0  0  0  0  0  0
    8.9640   47.2890   52.8650 C   0  0  0  0  0  0  0  0  0  0  0  0
    8.2640   46.4930   51.9540 C   0  0  0  0  0  0  0  0  0  0  0  0
    5.0300   42.9490   50.8200 C   0  0  0  0  0  0  0  0  0  0  0  0
    5.9130   42.5720   49.7920 C   0  0  0  0  0  0  0  0  0  0  0  0
    5.5780   41.5370   48.9130 C   0  0  0  0  0  0  0  0  0  0  0  0
    4.3620   40.8530   49.0480 C   0  0  0  0  0  0  0  0  0  0  0  0
    4.0330   39.8100   48.1160 N   0  0  0  0  0  0  0  0  0  0  0  0
    3.3350   40.0230   46.8810 C   0  0  0  0  0  0  0  0  0  0  0  0
    3.7810   40.9700   46.0130 N   0  0  0  0  0  0  0  0  0  0  0  0
    3.1610   41.1790   44.8220 C   0  0  0  0  0  0  0  0  0  0  0  0
    2.0540   40.4090   44.4690 C   0  0  0  0  0  0  0  0  0  0  0  0
    1.6150   39.4320   45.3610 C   0  0  0  0  0  0  0  0  0  0  0  0
    2.2630   39.2540   46.5430 N   0  0  0  0  0  0  0  0  0  0  0  0
    3.4620   41.2520   50.0510 C   0  0  0  0  0  0  0  0  0  0  0  0
    3.7950   42.2850   50.9310 C   0  0  0  0  0  0  0  0  0  0  0  0
  1  2  2  0
  2  3  1  0
  3  4  1  0
  4  5  2  0
  5  6  1  0
  6  7  2  0
  7  8  1  0
  8  9  1  0
  9 10  1  0
  9 11  1  0
  7 12  1  0
 12 13  2  0
  2 14  1  0
 14 15  2  0
 15 16  1  0
 16 17  2  0
 17 18  1  0
 18 19  1  0
 19 20  2  0
 20 21  1  0
 21 22  2  0
 22 23  1  0
 23 24  2  0
 17 25  1  0
 25 26  2  0
 13  4  1  0
 26 14  1  0
 24 19  1  0
M  END
>  <meeko>  (1) 
{"is_sidechain": [false], "free_energy": -8.607, "intermolecular_energy": -11.626, "internal_energy": -0.05}

$$$$
