ligand_51_conformer_3_docked
     RDKit          3D

 22 25  0  0  0  0  0  0  0  0999 V2000
    4.2390   46.2710   50.8060 O   0  0  0  0  0  0  0  0  0  0  0  0
    4.7890   45.7260   51.8010 C   0  0  0  0  0  0  0  0  0  0  0  0
    5.3780   44.4240   51.6740 N   0  0  0  0  0  0  0  0  0  0  0  0
    5.0660   43.5250   50.5620 C   0  0  1  0  0  0  0  0  0  0  0  0
    6.3390   43.0810   49.8520 C   0  0  0  0  0  0  0  0  0  0  0  0
    6.0450   41.6870   49.3190 C   0  0  0  0  0  0  0  0  0  0  0  0
    5.0160   41.0840   50.2810 C   0  0  2  0  0  0  0  0  0  0  0  0
    3.6420   40.7670   49.6850 C   0  0  0  0  0  0  0  0  0  0  0  0
    3.0320   41.9080   50.4900 C   0  0  0  0  0  0  0  0  0  0  0  0
    4.4100   42.2310   51.0730 C   0  0  2  0  0  0  0  0  0  0  0  0
    4.8600   46.4580   53.0770 C   0  0  0  0  0  0  0  0  0  0  0  0
    3.7910   46.7690   53.8910 C   0  0  0  0  0  0  0  0  0  0  0  0
    4.2370   47.5280   54.9070 N   0  0  0  0  0  0  0  0  0  0  0  0
    5.5430   47.7100   54.7940 N   0  0  0  0  0  0  0  0  0  0  0  0
    5.9560   47.0610   53.6860 C   0  0  0  0  0  0  0  0  0  0  0  0
    7.3760   46.9800   53.2850 C   0  0  0  0  0  0  0  0  0  0  0  0
    7.7380   46.7030   51.9550 C   0  0  0  0  0  0  0  0  0  0  0  0
    9.0850   46.6270   51.5920 C   0  0  0  0  0  0  0  0  0  0  0  0
   10.0810   46.8080   52.5540 C   0  0  0  0  0  0  0  0  0  0  0  0
    9.7320   47.0590   53.8830 C   0  0  0  0  0  0  0  0  0  0  0  0
   10.6990   47.2270   54.8180 F   0  0  0  0  0  0  0  0  0  0  0  0
    8.3850   47.1380   54.2510 C   0  0  0  0  0  0  0  0  0  0  0  0
  1  2  2  0
  2  3  1  0
  4  3  1  1
  4  5  1  0
  5  6  1  0
  7  6  1  6
  7  8  1  0
  8  9  1  0
 10  9  1  6
  2 11  1  0
 11 12  2  0
 12 13  1  0
 13 14  1  0
 14 15  2  0
 15 16  1  0
 16 17  2  0
 17 18  1  0
 18 19  2  0
 19 20  1  0
 20 21  1  0
 20 22  2  0
 10  4  1  0
 15 11  1  0
 22 16  1  0
 10  7  1  0
M  END
>  <meeko>  (1) 
{"is_sidechain": [false], "free_energy": -10.049, "intermolecular_energy": -11.811, "internal_energy": -0.214}

$$$$
