ligand_54_conformer_5_docked
     RDKit          3D

 24 26  0  0  0  0  0  0  0  0999 V2000
    5.7970   44.1020   50.8280 C   0  0  0  0  0  0  0  0  0  0  0  0
    5.1660   45.7720   51.1850 S   0  0  0  0  0  0  0  0  0  0  0  0
    6.5930   46.2280   52.1850 C   0  0  0  0  0  0  0  0  0  0  0  0
    7.8580   46.2020   51.5810 C   0  0  0  0  0  0  0  0  0  0  0  0
    9.0080   46.5170   52.3180 C   0  0  0  0  0  0  0  0  0  0  0  0
   10.3600   46.4440   51.6730 C   0  0  0  0  0  0  0  0  0  0  0  0
    8.8900   46.8320   53.6770 C   0  0  0  0  0  0  0  0  0  0  0  0
    7.6330   46.8650   54.2860 C   0  0  0  0  0  0  0  0  0  0  0  0
    6.4730   46.5700   53.5520 C   0  0  0  0  0  0  0  0  0  0  0  0
    5.1550   46.6280   54.2270 C   0  0  0  0  0  0  0  0  0  0  0  0
    4.6180   47.7480   54.4390 O   0  0  0  0  0  0  0  0  0  0  0  0
    4.5150   45.4220   54.6730 N   0  0  0  0  0  0  0  0  0  0  0  0
    3.1810   45.3860   55.2030 C   0  0  0  0  0  0  0  0  0  0  0  0
    2.7810   45.9910   56.3340 N   0  0  0  0  0  0  0  0  0  0  0  0
    1.4700   45.8320   56.4250 N   0  0  0  0  0  0  0  0  0  0  0  0
    1.0060   45.1480   55.3870 N   0  0  0  0  0  0  0  0  0  0  0  0
    2.0570   44.8650   54.5910 C   0  0  0  0  0  0  0  0  0  0  0  0
    1.9850   44.0770   53.3400 C   0  0  0  0  0  0  0  0  0  0  0  0
    2.9900   43.4010   52.9890 O   0  0  0  0  0  0  0  0  0  0  0  0
    0.7990   44.0450   52.5230 N   0  0  0  0  0  0  0  0  0  0  0  0
    0.6800   43.1830   51.3590 C   0  0  0  0  0  0  0  0  0  0  0  0
   -0.7220   43.4160   50.8150 C   0  0  0  0  0  0  0  0  0  0  0  0
   -1.1890   44.7320   51.4270 C   0  0  0  0  0  0  0  0  0  0  0  0
   -0.3440   44.9300   52.6770 C   0  0  0  0  0  0  0  0  0  0  0  0
  1  2  1  0
  2  3  1  0
  3  4  2  0
  4  5  1  0
  5  6  1  0
  5  7  2  0
  7  8  1  0
  8  9  2  0
  9 10  1  0
 10 11  2  0
 10 12  1  0
 12 13  1  0
 13 14  1  0
 14 15  1  0
 15 16  2  0
 16 17  1  0
 17 18  1  0
 18 19  2  0
 18 20  1  0
 20 21  1  0
 21 22  1  0
 22 23  1  0
 23 24  1  0
  9  3  1  0
 17 13  2  0
 24 20  1  0
M  END
>  <meeko>  (1) 
{"is_sidechain": [false], "free_energy": -8.675, "intermolecular_energy": -10.704, "internal_energy": -0.802}

$$$$
