ligand_46_conformer_5_docked
     RDKit          3D

 28 32  0  0  0  0  0  0  0  0999 V2000
   -0.5060   43.2210   53.0920 O   0  0  0  0  0  0  0  0  0  0  0  0
    0.3750   43.8150   53.7710 C   0  0  0  0  0  0  0  0  0  0  0  0
    1.7480   43.9310   53.2380 C   0  0  0  0  0  0  0  0  0  0  0  0
    2.1640   43.0890   52.1730 C   0  0  0  0  0  0  0  0  0  0  0  0
    3.4660   43.1770   51.6490 C   0  0  0  0  0  0  0  0  0  0  0  0
    4.3330   44.1040   52.2180 C   0  0  0  0  0  0  0  0  0  0  0  0
    5.6470   44.3990   51.9270 C   0  0  0  0  0  0  0  0  0  0  0  0
    6.0070   45.3970   52.8360 C   0  0  0  0  0  0  0  0  0  0  0  0
    7.3430   46.0420   52.9220 C   0  0  0  0  0  0  0  0  0  0  0  0
    7.7860   46.6120   54.1310 C   0  0  0  0  0  0  0  0  0  0  0  0
    9.0450   47.2170   54.2100 C   0  0  0  0  0  0  0  0  0  0  0  0
    9.8740   47.2590   53.0880 C   0  0  0  0  0  0  0  0  0  0  0  0
    9.4470   46.6970   51.8840 C   0  0  0  0  0  0  0  0  0  0  0  0
    8.1900   46.0910   51.7980 C   0  0  0  0  0  0  0  0  0  0  0  0
    4.9620   45.7000   53.6470 N   0  0  0  0  0  0  0  0  0  0  0  0
    3.9510   44.9070   53.2570 C   0  0  0  0  0  0  0  0  0  0  0  0
    2.6670   44.8490   53.7960 C   0  0  0  0  0  0  0  0  0  0  0  0
    0.0030   44.4020   55.0210 N   0  0  0  0  0  0  0  0  0  0  0  0
    0.5620   45.3320   56.0240 C   0  0  0  0  0  0  0  0  0  0  0  0
   -0.6940   45.4580   56.8380 C   0  0  0  0  0  0  0  0  0  0  0  0
   -1.3320   46.7860   56.7730 N   0  0  0  0  0  0  0  0  0  0  0  0
   -1.5030   47.3680   58.1180 C   0  0  0  0  0  0  0  0  0  0  0  0
   -0.1330   47.5940   58.7790 C   0  0  0  0  0  0  0  0  0  0  0  0
   -0.2840   48.2900   60.1530 C   0  0  0  0  0  0  0  0  0  0  0  0
   -1.5650   48.8640   60.3570 O   0  0  0  0  0  0  0  0  0  0  0  0
   -1.9420   49.6270   59.2300 C   0  0  0  0  0  0  0  0  0  0  0  0
   -2.2680   48.7100   58.0380 C   0  0  0  0  0  0  0  0  0  0  0  0
   -1.2360   44.5080   55.8140 C   0  0  0  0  0  0  0  0  0  0  0  0
  1  2  2  0
  2  3  1  0
  3  4  2  0
  4  5  1  0
  5  6  2  0
  6  7  1  0
  7  8  2  0
  8  9  1  0
  9 10  2  0
 10 11  1  0
 11 12  2  0
 12 13  1  0
 13 14  2  0
  8 15  1  0
 15 16  1  0
 16 17  2  0
  2 18  1  0
 18 19  1  0
 19 20  1  0
 20 21  1  0
 21 22  1  0
 22 23  1  0
 23 24  1  0
 24 25  1  0
 25 26  1  0
 26 27  1  0
 20 28  1  0
 17  3  1  0
 28 18  1  0
 16  6  1  0
 27 22  1  0
 14  9  1  0
M  END
>  <meeko>  (1) 
{"is_sidechain": [false], "free_energy": -9.373, "intermolecular_energy": -11.564, "internal_energy": -0.226}

$$$$
