ligand_53_conformer_2_docked
     RDKit          3D

 22 24  0  0  0  0  0  0  0  0999 V2000
    1.1410   45.5340   54.7740 N   0  0  0  0  0  0  0  0  0  0  0  0
    2.2850   45.4560   54.6140 C   0  0  0  0  0  0  0  0  0  0  0  0
    3.7050   45.3630   54.4170 C   0  0  0  0  0  0  0  0  0  0  0  0
    4.2510   45.4880   53.1360 C   0  0  0  0  0  0  0  0  0  0  0  0
    5.6490   45.4140   52.9860 C   0  0  0  0  0  0  0  0  0  0  0  0
    6.2860   45.5610   51.6910 N   0  0  0  0  0  0  0  0  0  0  0  0
    7.6610   46.0740   51.5560 C   0  0  0  0  0  0  0  0  0  0  0  0
    7.7390   47.5440   52.0240 C   0  0  0  0  0  0  0  0  0  0  0  0
    8.9720   47.9350   52.8760 C   0  0  1  0  0  0  0  0  0  0  0  0
    8.7460   47.9690   54.3870 C   0  0  0  0  0  0  0  0  0  0  0  0
    9.7990   46.8820   54.5600 C   0  0  2  0  0  0  0  0  0  0  0  0
   10.9030   47.3300   55.2660 F   0  0  0  0  0  0  0  0  0  0  0  0
   10.0500   46.8640   53.0570 C   0  0  0  0  0  0  0  0  0  0  0  0
    5.5920   45.1020   50.4790 C   0  0  0  0  0  0  0  0  0  0  0  0
    5.6480   43.6090   50.3820 C   0  0  0  0  0  0  0  0  0  0  0  0
    6.6050   42.8400   49.7370 C   0  0  0  0  0  0  0  0  0  0  0  0
    6.3080   41.4620   49.7540 C   0  0  0  0  0  0  0  0  0  0  0  0
    5.1530   41.1020   50.3740 N   0  0  0  0  0  0  0  0  0  0  0  0
    4.4920   42.5310   50.9060 S   0  0  0  0  0  0  0  0  0  0  0  0
    6.4130   45.2070   54.0930 N   0  0  0  0  0  0  0  0  0  0  0  0
    5.8620   45.0770   55.3270 C   0  0  0  0  0  0  0  0  0  0  0  0
    4.5180   45.1610   55.4850 N   0  0  0  0  0  0  0  0  0  0  0  0
  1  2  3  0
  2  3  1  0
  3  4  2  0
  4  5  1  0
  5  6  1  0
  6  7  1  0
  7  8  1  0
  9  8  1  6
  9 10  1  0
 10 11  1  0
 11 12  1  1
 11 13  1  0
  6 14  1  0
 14 15  1  0
 15 16  2  0
 16 17  1  0
 17 18  2  0
 18 19  1  0
  5 20  2  0
 20 21  1  0
 21 22  2  0
 22  3  1  0
 13  9  1  0
 19 15  1  0
M  END
>  <meeko>  (1) 
{"is_sidechain": [false], "free_energy": -8.265, "intermolecular_energy": -11.164, "internal_energy": -0.779}

$$$$
