ligand_23_conformer_3_docked
     RDKit          3D

 24 26  0  0  0  0  0  0  0  0999 V2000
   -0.0690   41.5550   53.6810 C   0  0  0  0  0  0  0  0  0  0  0  0
    0.0750   42.7660   52.7500 C   0  0  2  0  0  0  0  0  0  0  0  0
    1.4920   43.1330   52.6200 N   0  0  0  0  0  0  0  0  0  0  0  0
    2.1570   43.2280   51.3490 C   0  0  0  0  0  0  0  0  0  0  0  0
    1.6470   42.6780   50.3340 O   0  0  0  0  0  0  0  0  0  0  0  0
    3.4460   43.9480   51.2120 C   0  0  0  0  0  0  0  0  0  0  0  0
    4.6630   43.2500   51.1070 C   0  0  0  0  0  0  0  0  0  0  0  0
    5.8720   43.9430   50.9950 C   0  0  0  0  0  0  0  0  0  0  0  0
    5.8870   45.3480   51.0030 C   0  0  0  0  0  0  0  0  0  0  0  0
    7.0790   46.0780   50.8780 O   0  0  0  0  0  0  0  0  0  0  0  0
    7.9320   46.4300   51.9330 C   0  0  0  0  0  0  0  0  0  0  0  0
    7.3700   46.7450   53.1760 C   0  0  0  0  0  0  0  0  0  0  0  0
    8.1890   47.0880   54.2570 C   0  0  0  0  0  0  0  0  0  0  0  0
    9.5800   47.1040   54.1060 C   0  0  0  0  0  0  0  0  0  0  0  0
   10.6050   47.5310   55.4630 Cl  0  0  0  0  0  0  0  0  0  0  0  0
   10.1500   46.7710   52.8730 C   0  0  0  0  0  0  0  0  0  0  0  0
    9.3330   46.4290   51.7920 C   0  0  0  0  0  0  0  0  0  0  0  0
    4.6790   46.0440   51.0950 C   0  0  0  0  0  0  0  0  0  0  0  0
    3.4690   45.3540   51.2100 C   0  0  0  0  0  0  0  0  0  0  0  0
   -0.7860   43.9700   53.2300 C   0  0  1  0  0  0  0  0  0  0  0  0
   -1.2610   43.8630   54.6810 C   0  0  0  0  0  0  0  0  0  0  0  0
   -0.4920   44.9340   55.4480 C   0  0  0  0  0  0  0  0  0  0  0  0
    0.5010   45.5120   54.5440 N   0  0  0  0  0  0  0  0  0  0  0  0
   -0.0050   45.2810   53.1970 C   0  0  0  0  0  0  0  0  0  0  0  0
  2  1  1  1
  2  3  1  0
  3  4  1  0
  4  5  2  0
  4  6  1  0
  6  7  2  0
  7  8  1  0
  8  9  2  0
  9 10  1  0
 10 11  1  0
 11 12  2  0
 12 13  1  0
 13 14  2  0
 14 15  1  0
 14 16  1  0
 16 17  2  0
  9 18  1  0
 18 19  2  0
  2 20  1  0
 20 21  1  1
 21 22  1  0
 22 23  1  0
 23 24  1  0
 19  6  1  0
 24 20  1  0
 17 11  1  0
M  END
>  <meeko>  (1) 
{"is_sidechain": [false], "free_energy": -8.717, "intermolecular_energy": -11.266, "internal_energy": -0.997}

$$$$
