ligand_89_conformer_1_docked
     RDKit          3D

 27 30  0  0  0  0  0  0  0  0999 V2000
    1.4920   43.1910   51.2120 O   0  0  0  0  0  0  0  0  0  0  0  0
    1.8190   42.8260   52.3730 C   0  0  0  0  0  0  0  0  0  0  0  0
    0.7500   42.4700   53.3700 C   0  0  0  0  0  0  0  0  0  0  0  0
   -0.0170   43.6940   53.9170 C   0  0  1  0  0  0  0  0  0  0  0  0
   -1.4170   43.3310   54.4960 C   0  0  0  0  0  0  0  0  0  0  0  0
   -1.9820   44.4440   55.4220 C   0  0  1  0  0  0  0  0  0  0  0  0
   -1.6440   44.1710   56.8950 C   0  0  0  0  0  0  0  0  0  0  0  0
   -0.3300   44.9050   57.1140 C   0  0  0  0  0  0  0  0  0  0  0  0
   -0.0200   45.5270   55.7450 C   0  0  1  0  0  0  0  0  0  0  0  0
    0.8460   44.5700   54.8760 C   0  0  0  0  0  0  0  0  0  0  0  0
   -1.3180   45.7060   55.0970 N   0  0  0  0  0  0  0  0  0  0  0  0
    3.2030   42.7320   52.7360 N   0  0  0  0  0  0  0  0  0  0  0  0
    4.2370   43.5150   52.1200 C   0  0  0  0  0  0  0  0  0  0  0  0
    4.5820   44.7850   52.6160 C   0  0  0  0  0  0  0  0  0  0  0  0
    5.6210   45.5140   52.0320 C   0  0  0  0  0  0  0  0  0  0  0  0
    6.3360   44.9840   50.9410 C   0  0  0  0  0  0  0  0  0  0  0  0
    7.3820   45.6860   50.3210 O   0  0  0  0  0  0  0  0  0  0  0  0
    8.7410   45.6560   50.7500 C   0  0  0  0  0  0  0  0  0  0  0  0
    8.8780   46.4810   51.9960 C   0  0  0  0  0  0  0  0  0  0  0  0
    9.7410   46.0770   53.0260 C   0  0  0  0  0  0  0  0  0  0  0  0
    9.8950   46.8750   54.1600 C   0  0  0  0  0  0  0  0  0  0  0  0
    9.1910   48.0800   54.2500 C   0  0  0  0  0  0  0  0  0  0  0  0
    8.3710   48.4670   53.2360 N   0  0  0  0  0  0  0  0  0  0  0  0
    8.2050   47.7070   52.1210 C   0  0  0  0  0  0  0  0  0  0  0  0
    5.9980   43.7120   50.4540 C   0  0  0  0  0  0  0  0  0  0  0  0
    6.8700   43.0160   49.0960 Cl  0  0  0  0  0  0  0  0  0  0  0  0
    4.9640   42.9800   51.0480 C   0  0  0  0  0  0  0  0  0  0  0  0
  1  2  2  0
  2  3  1  0
  4  3  1  1
  4  5  1  0
  6  5  1  6
  6  7  1  0
  7  8  1  0
  9  8  1  1
  9 10  1  0
  9 11  1  0
  2 12  1  0
 12 13  1  0
 13 14  2  0
 14 15  1  0
 15 16  2  0
 16 17  1  0
 17 18  1  0
 18 19  1  0
 19 20  2  0
 20 21  1  0
 21 22  2  0
 22 23  1  0
 23 24  2  0
 16 25  1  0
 25 26  1  0
 25 27  2  0
 10  4  1  0
 27 13  1  0
 11  6  1  0
 24 19  1  0
M  END
>  <meeko>  (1) 
{"is_sidechain": [false], "free_energy": -9.058, "intermolecular_energy": -12.236, "internal_energy": -0.605}

$$$$
