ligand_30_conformer_1_docked
     RDKit          3D

 23 25  0  0  0  0  0  0  0  0999 V2000
   11.3430   47.6500   56.5640 C   0  0  0  0  0  0  0  0  0  0  0  0
   10.5000   46.9560   55.6530 O   0  0  0  0  0  0  0  0  0  0  0  0
    9.5060   47.5940   54.9060 C   0  0  0  0  0  0  0  0  0  0  0  0
    9.0110   48.6800   55.3200 O   0  0  0  0  0  0  0  0  0  0  0  0
    8.9980   46.9890   53.6470 C   0  0  0  0  0  0  0  0  0  0  0  0
    9.9030   46.7900   52.5870 C   0  0  0  0  0  0  0  0  0  0  0  0
    9.4780   46.2520   51.3720 C   0  0  0  0  0  0  0  0  0  0  0  0
    8.1360   45.9130   51.1810 C   0  0  0  0  0  0  0  0  0  0  0  0
    7.6890   45.2880   49.8880 C   0  0  0  0  0  0  0  0  0  0  0  0
    6.5990   44.3540   50.1450 N   0  0  0  0  0  0  0  0  0  0  0  0
    5.3850   44.6580   50.6330 C   0  0  0  0  0  0  0  0  0  0  0  0
    4.7450   43.4540   50.8280 C   0  0  0  0  0  0  0  0  0  0  0  0
    3.4110   43.2520   51.4700 C   0  0  0  0  0  0  0  0  0  0  0  0
    3.0210   44.4610   52.1860 N   0  0  0  0  0  0  0  0  0  0  0  0
    3.3260   44.7570   53.4630 C   0  0  0  0  0  0  0  0  0  0  0  0
    2.7060   45.9420   53.7920 C   0  0  0  0  0  0  0  0  0  0  0  0
    2.0210   46.3110   52.6500 C   0  0  0  0  0  0  0  0  0  0  0  0
    2.2200   45.3890   51.6870 N   0  0  0  0  0  0  0  0  0  0  0  0
    5.5890   42.4590   50.4860 N   0  0  0  0  0  0  0  0  0  0  0  0
    6.7090   43.0370   50.0740 N   0  0  0  0  0  0  0  0  0  0  0  0
    7.2280   46.0790   52.2340 C   0  0  0  0  0  0  0  0  0  0  0  0
    7.6420   46.6010   53.4720 C   0  0  0  0  0  0  0  0  0  0  0  0
    6.6240   46.7150   54.5770 C   0  0  0  0  0  0  0  0  0  0  0  0
  1  2  1  0
  2  3  1  0
  3  4  2  0
  3  5  1  0
  5  6  2  0
  6  7  1  0
  7  8  2  0
  8  9  1  0
  9 10  1  0
 10 11  1  0
 11 12  2  0
 12 13  1  0
 13 14  1  0
 14 15  1  0
 15 16  2  0
 16 17  1  0
 17 18  2  0
 12 19  1  0
 19 20  2  0
  8 21  1  0
 21 22  2  0
 22 23  1  0
 22  5  1  0
 20 10  1  0
 18 14  1  0
M  END
>  <meeko>  (1) 
{"is_sidechain": [false], "free_energy": -8.439, "intermolecular_energy": -11.399, "internal_energy": 0.191}

$$$$
