ligand_79_conformer_2_docked
     RDKit          3D

 25 27  0  0  0  0  0  0  0  0999 V2000
    5.4730   44.9580   55.6980 C   0  0  0  0  0  0  0  0  0  0  0  0
    4.8660   46.0420   54.8030 C   0  0  1  0  0  0  0  0  0  0  0  0
    5.9220   46.7170   53.9650 C   0  0  0  0  0  0  0  0  0  0  0  0
    5.7230   47.8940   53.5620 O   0  0  0  0  0  0  0  0  0  0  0  0
    7.1390   46.0310   53.6230 N   0  0  0  0  0  0  0  0  0  0  0  0
    8.1860   46.6270   52.7780 C   0  0  0  0  0  0  0  0  0  0  0  0
    7.7490   46.7970   51.3020 C   0  0  0  0  0  0  0  0  0  0  0  0
    7.3620   45.4850   50.6630 C   0  0  0  0  0  0  0  0  0  0  0  0
    6.0760   44.9500   50.8500 C   0  0  0  0  0  0  0  0  0  0  0  0
    5.7180   43.7430   50.2420 C   0  0  0  0  0  0  0  0  0  0  0  0
    6.6410   43.0570   49.4490 C   0  0  0  0  0  0  0  0  0  0  0  0
    7.9250   43.5760   49.2650 C   0  0  0  0  0  0  0  0  0  0  0  0
    8.2830   44.7890   49.8600 C   0  0  0  0  0  0  0  0  0  0  0  0
    9.5480   45.9350   52.9540 C   0  0  0  0  0  0  0  0  0  0  0  0
   10.1160   47.2040   53.5730 C   0  0  0  0  0  0  0  0  0  0  0  0
    8.7750   47.9020   53.3980 C   0  0  0  0  0  0  0  0  0  0  0  0
    3.8160   45.4850   53.9460 N   0  0  0  0  0  0  0  0  0  0  0  0
    2.7200   46.1400   53.5170 C   0  0  0  0  0  0  0  0  0  0  0  0
    1.9900   45.2920   52.7120 C   0  0  0  0  0  0  0  0  0  0  0  0
    2.7320   44.1250   52.6790 C   0  0  0  0  0  0  0  0  0  0  0  0
    2.3570   42.8630   51.9700 C   0  0  0  0  0  0  0  0  0  0  0  0
    3.4370   42.0000   51.9430 F   0  0  0  0  0  0  0  0  0  0  0  0
    1.9750   43.1420   50.6710 F   0  0  0  0  0  0  0  0  0  0  0  0
    1.3070   42.2580   52.6340 F   0  0  0  0  0  0  0  0  0  0  0  0
    3.8320   44.2590   53.4440 N   0  0  0  0  0  0  0  0  0  0  0  0
  2  1  1  6
  2  3  1  0
  3  4  2  0
  3  5  1  0
  5  6  1  0
  6  7  1  0
  7  8  1  0
  8  9  2  0
  9 10  1  0
 10 11  2  0
 11 12  1  0
 12 13  2  0
  6 14  1  0
 14 15  1  0
 15 16  1  0
  2 17  1  0
 17 18  1  0
 18 19  2  0
 19 20  1  0
 20 21  1  0
 21 22  1  0
 21 23  1  0
 21 24  1  0
 20 25  2  0
 16  6  1  0
 25 17  1  0
 13  8  1  0
M  END
>  <meeko>  (1) 
{"is_sidechain": [false], "free_energy": -9.563, "intermolecular_energy": -12.917, "internal_energy": -0.972}

$$$$
