ligand_95_conformer_4_docked
     RDKit          3D

 21 23  0  0  0  0  0  0  0  0999 V2000
    1.9640   42.9380   53.0790 N   0  0  0  0  0  0  0  0  0  0  0  0
    2.8390   42.7790   52.3390 C   0  0  0  0  0  0  0  0  0  0  0  0
    3.9290   42.5820   51.4210 C   0  0  0  0  0  0  0  0  0  0  0  0
    4.0610   41.4250   50.6410 C   0  0  0  0  0  0  0  0  0  0  0  0
    5.1900   41.4320   49.8290 C   0  0  0  0  0  0  0  0  0  0  0  0
    6.0200   42.8740   50.0840 S   0  0  0  0  0  0  0  0  0  0  0  0
    4.9540   43.5000   51.2210 C   0  0  0  0  0  0  0  0  0  0  0  0
    5.1500   45.0460   52.0350 S   0  0  0  0  0  0  0  0  0  0  0  0
    5.6750   44.7970   53.4220 O   0  0  0  0  0  0  0  0  0  0  0  0
    3.8290   45.7550   52.1290 O   0  0  0  0  0  0  0  0  0  0  0  0
    6.2750   46.0370   51.1620 N   0  0  0  0  0  0  0  0  0  0  0  0
    7.6980   45.9370   51.3360 C   0  0  0  0  0  0  0  0  0  0  0  0
    8.5080   45.2210   50.4270 C   0  0  0  0  0  0  0  0  0  0  0  0
    9.8990   45.1330   50.6200 C   0  0  0  0  0  0  0  0  0  0  0  0
   10.5050   45.7590   51.7190 C   0  0  0  0  0  0  0  0  0  0  0  0
    9.7010   46.4690   52.6070 C   0  0  0  0  0  0  0  0  0  0  0  0
    8.3350   46.5600   52.4200 C   0  0  0  0  0  0  0  0  0  0  0  0
    7.7180   47.2980   53.4640 N   0  0  0  0  0  0  0  0  0  0  0  0
    8.7860   47.6740   54.3240 C   0  0  0  0  0  0  0  0  0  0  0  0
    8.6130   48.3430   55.3770 O   0  0  0  0  0  0  0  0  0  0  0  0
   10.1210   47.1870   53.8490 C   0  0  0  0  0  0  0  0  0  0  0  0
  1  2  3  0
  2  3  1  0
  3  4  1  0
  4  5  2  0
  5  6  1  0
  6  7  1  0
  7  8  1  0
  8  9  2  0
  8 10  2  0
  8 11  1  0
 11 12  1  0
 12 13  2  0
 13 14  1  0
 14 15  2  0
 15 16  1  0
 16 17  2  0
 17 18  1  0
 18 19  1  0
 19 20  2  0
 19 21  1  0
  7  3  2  0
 17 12  1  0
 21 16  1  0
M  END
>  <meeko>  (1) 
{"is_sidechain": [false], "free_energy": -8.967, "intermolecular_energy": -10.54, "internal_energy": -0.302}

$$$$
