ligand_10_conformer_3_docked
     RDKit          3D

 29 32  0  0  0  0  0  0  0  0999 V2000
   -3.5460   42.7890   59.0030 C   0  0  0  0  0  0  0  0  0  0  0  0
   -3.1840   43.6760   57.8490 C   0  0  0  0  0  0  0  0  0  0  0  0
   -3.3000   45.0690   57.9650 C   0  0  0  0  0  0  0  0  0  0  0  0
   -2.9340   45.8950   56.8990 C   0  0  0  0  0  0  0  0  0  0  0  0
   -2.4290   45.3390   55.7210 C   0  0  0  0  0  0  0  0  0  0  0  0
   -2.2710   43.9540   55.6020 C   0  0  0  0  0  0  0  0  0  0  0  0
   -1.7710   43.4350   54.3980 O   0  0  0  0  0  0  0  0  0  0  0  0
   -0.6330   43.8950   53.7210 C   0  0  0  0  0  0  0  0  0  0  0  0
   -0.7030   44.8590   52.7040 C   0  0  0  0  0  0  0  0  0  0  0  0
    0.4600   45.2770   52.0540 C   0  0  0  0  0  0  0  0  0  0  0  0
    1.6950   44.7140   52.4150 C   0  0  0  0  0  0  0  0  0  0  0  0
    2.9480   45.1310   51.7490 C   0  0  0  0  0  0  0  0  0  0  0  0
    2.8980   45.9120   50.7580 O   0  0  0  0  0  0  0  0  0  0  0  0
    4.2210   44.6840   52.2500 N   0  0  0  0  0  0  0  0  0  0  0  0
    5.4630   44.8220   51.5370 C   0  0  0  0  0  0  0  0  0  0  0  0
    5.7540   43.9400   50.4870 C   0  0  0  0  0  0  0  0  0  0  0  0
    6.9490   44.0570   49.7740 C   0  0  0  0  0  0  0  0  0  0  0  0
    7.8600   45.0660   50.0920 C   0  0  0  0  0  0  0  0  0  0  0  0
    7.5730   45.9830   51.1140 C   0  0  0  0  0  0  0  0  0  0  0  0
    8.5700   47.0690   51.4600 C   0  0  2  0  0  0  0  0  0  0  0  0
    9.9170   46.4810   51.9530 C   0  0  0  0  0  0  0  0  0  0  0  0
   10.0900   46.9020   53.4210 C   0  0  0  0  0  0  0  0  0  0  0  0
    8.9390   47.7940   53.6560 C   0  0  0  0  0  0  0  0  0  0  0  0
    8.7330   48.4060   54.7370 O   0  0  0  0  0  0  0  0  0  0  0  0
    8.0710   47.8880   52.5500 N   0  0  0  0  0  0  0  0  0  0  0  0
    6.3700   45.8560   51.8330 C   0  0  0  0  0  0  0  0  0  0  0  0
    1.7310   43.7600   53.3870 N   0  0  0  0  0  0  0  0  0  0  0  0
    0.6120   43.3420   54.0350 C   0  0  0  0  0  0  0  0  0  0  0  0
   -2.6620   43.1220   56.6690 C   0  0  0  0  0  0  0  0  0  0  0  0
  1  2  1  0
  2  3  2  0
  3  4  1  0
  4  5  2  0
  5  6  1  0
  6  7  1  0
  7  8  1  0
  8  9  2  0
  9 10  1  0
 10 11  2  0
 11 12  1  0
 12 13  2  0
 12 14  1  0
 14 15  1  0
 15 16  2  0
 16 17  1  0
 17 18  2  0
 18 19  1  0
 20 19  1  1
 20 21  1  0
 21 22  1  0
 22 23  1  0
 23 24  2  0
 23 25  1  0
 19 26  2  0
 11 27  1  0
 27 28  2  0
  6 29  2  0
 29  2  1  0
 28  8  1  0
 26 15  1  0
 25 20  1  0
M  END
>  <meeko>  (1) 
{"is_sidechain": [false], "free_energy": -9.724, "intermolecular_energy": -12.566, "internal_energy": -0.854}

$$$$
