ligand_64_conformer_1_docked
     RDKit          3D

 23 25  0  0  0  0  0  0  0  0999 V2000
    8.3010   45.5750   50.7630 O   0  0  0  0  0  0  0  0  0  0  0  0
    8.5710   46.1930   51.8270 C   0  0  0  0  0  0  0  0  0  0  0  0
    9.9130   46.7760   52.1190 C   0  0  0  0  0  0  0  0  0  0  0  0
    9.7410   47.4280   53.5050 C   0  0  0  0  0  0  0  0  0  0  0  0
    8.3240   47.1300   53.8680 C   0  0  0  0  0  0  0  0  0  0  0  0
    7.8220   47.4270   54.9850 O   0  0  0  0  0  0  0  0  0  0  0  0
    7.6220   46.4230   52.8560 N   0  0  0  0  0  0  0  0  0  0  0  0
    6.2760   45.9170   52.9010 C   0  0  0  0  0  0  0  0  0  0  0  0
    5.2780   46.4280   52.0550 C   0  0  0  0  0  0  0  0  0  0  0  0
    3.9850   45.9040   52.1210 C   0  0  0  0  0  0  0  0  0  0  0  0
    3.6920   44.8770   53.0230 C   0  0  0  0  0  0  0  0  0  0  0  0
    2.0690   44.1950   53.0900 S   0  0  0  0  0  0  0  0  0  0  0  0
    1.1340   45.0740   52.3080 O   0  0  0  0  0  0  0  0  0  0  0  0
    1.5910   44.1420   54.5150 O   0  0  0  0  0  0  0  0  0  0  0  0
    2.0540   42.5960   52.4090 N   0  0  0  0  0  0  0  0  0  0  0  0
    2.4920   42.6470   51.0120 C   0  0  0  0  0  0  0  0  0  0  0  0
    3.7690   41.8090   50.8270 C   0  0  2  0  0  0  0  0  0  0  0  0
    5.0010   42.6390   50.6020 C   0  0  0  0  0  0  0  0  0  0  0  0
    5.8580   41.7380   49.7330 C   0  0  0  0  0  0  0  0  0  0  0  0
    5.0460   40.7700   49.1060 O   0  0  0  0  0  0  0  0  0  0  0  0
    3.7300   40.9440   49.5790 C   0  0  0  0  0  0  0  0  0  0  0  0
    4.7140   44.3800   53.8370 C   0  0  0  0  0  0  0  0  0  0  0  0
    5.9660   44.9030   53.7560 N   0  0  0  0  0  0  0  0  0  0  0  0
  1  2  2  0
  2  3  1  0
  3  4  1  0
  4  5  1  0
  5  6  2  0
  5  7  1  0
  7  8  1  0
  8  9  2  0
  9 10  1  0
 10 11  2  0
 11 12  1  0
 12 13  2  0
 12 14  2  0
 12 15  1  0
 15 16  1  0
 17 16  1  6
 17 18  1  0
 18 19  1  0
 19 20  1  0
 20 21  1  0
 11 22  1  0
 22 23  2  0
  7  2  1  0
 23  8  1  0
 21 17  1  0
M  END
>  <meeko>  (1) 
{"is_sidechain": [false], "free_energy": -8.581, "intermolecular_energy": -11.089, "internal_energy": -0.941}

$$$$
