ligand_69_conformer_4_docked
     RDKit          3D

 23 26  0  0  0  0  0  0  0  0999 V2000
   -1.8450   42.7650   51.8840 C   0  0  0  0  0  0  0  0  0  0  0  0
   -0.4860   43.2880   51.9610 N   0  0  0  0  0  0  0  0  0  0  0  0
    0.0130   44.4090   51.1870 C   0  0  0  0  0  0  0  0  0  0  0  0
    1.5070   44.5210   51.5400 C   0  0  0  0  0  0  0  0  0  0  0  0
    1.7290   43.7030   52.8500 C   0  0  0  0  0  0  0  0  0  0  0  0
    1.8100   44.6340   54.0980 C   0  0  0  0  0  0  0  0  0  0  0  0
    3.2560   44.9760   54.5050 C   0  0  0  0  0  0  0  0  0  0  0  0
    4.1540   44.9110   53.3460 N   0  0  0  0  0  0  0  0  0  0  0  0
    4.7100   46.1220   52.7940 C   0  0  0  0  0  0  0  0  0  0  0  0
    4.0700   47.2040   52.8990 O   0  0  0  0  0  0  0  0  0  0  0  0
    6.0130   46.1270   52.0980 C   0  0  0  0  0  0  0  0  0  0  0  0
    6.2680   45.6580   50.8120 C   0  0  0  0  0  0  0  0  0  0  0  0
    7.6300   45.8170   50.5770 C   0  0  0  0  0  0  0  0  0  0  0  0
    8.1460   46.3680   51.7320 C   0  0  0  0  0  0  0  0  0  0  0  0
    9.4570   46.7230   52.0270 C   0  0  0  0  0  0  0  0  0  0  0  0
    9.7070   47.2700   53.2940 C   0  0  0  0  0  0  0  0  0  0  0  0
    8.6460   47.4360   54.2040 C   0  0  0  0  0  0  0  0  0  0  0  0
    7.3840   47.0630   53.8470 N   0  0  0  0  0  0  0  0  0  0  0  0
    7.1740   46.5450   52.6370 N   0  0  0  0  0  0  0  0  0  0  0  0
    4.2660   43.6370   52.6170 C   0  0  0  0  0  0  0  0  0  0  0  0
    2.9820   42.7970   52.7540 C   0  0  0  0  0  0  0  0  0  0  0  0
    0.4840   42.8850   52.9080 C   0  0  0  0  0  0  0  0  0  0  0  0
    0.2860   41.9520   53.7330 O   0  0  0  0  0  0  0  0  0  0  0  0
  1  2  1  0
  2  3  1  0
  3  4  1  0
  4  5  1  0
  5  6  1  0
  6  7  1  0
  7  8  1  0
  8  9  1  0
  9 10  2  0
  9 11  1  0
 11 12  2  0
 12 13  1  0
 13 14  2  0
 14 15  1  0
 15 16  2  0
 16 17  1  0
 17 18  2  0
 18 19  1  0
  8 20  1  0
 20 21  1  0
  5 22  1  0
 22 23  2  0
 22  2  1  0
 21  5  1  0
 19 11  1  0
 19 14  1  0
M  END
>  <meeko>  (1) 
{"is_sidechain": [false], "free_energy": -9.466, "intermolecular_energy": -10.019, "internal_energy": -0.203}

$$$$
