ligand_35_conformer_2_docked
     RDKit          3D

 25 27  0  0  0  0  0  0  0  0999 V2000
   10.1520   47.2400   54.4750 C   0  0  0  0  0  0  0  0  0  0  0  0
    9.2750   47.5760   53.4050 O   0  0  0  0  0  0  0  0  0  0  0  0
    7.9230   47.2080   53.3440 C   0  0  0  0  0  0  0  0  0  0  0  0
    7.1970   47.1930   52.1370 C   0  0  0  0  0  0  0  0  0  0  0  0
    5.8500   46.8180   52.1290 C   0  0  0  0  0  0  0  0  0  0  0  0
    5.2050   46.4560   53.3230 C   0  0  0  0  0  0  0  0  0  0  0  0
    3.7830   46.0580   53.3080 C   0  0  0  0  0  0  0  0  0  0  0  0
    3.2790   45.0420   54.0420 N   0  0  0  0  0  0  0  0  0  0  0  0
    1.9730   45.0480   53.7150 C   0  0  0  0  0  0  0  0  0  0  0  0
    0.9790   44.0420   54.2110 C   0  0  0  0  0  0  0  0  0  0  0  0
    1.1450   42.6960   53.5010 C   0  0  0  0  0  0  0  0  0  0  0  0
    2.4640   42.6000   52.8710 N   0  0  0  0  0  0  0  0  0  0  0  0
    2.6490   42.6830   51.4480 C   0  0  0  0  0  0  0  0  0  0  0  0
    1.6510   42.8610   50.6960 O   0  0  0  0  0  0  0  0  0  0  0  0
    3.9930   42.5360   50.8410 C   0  0  0  0  0  0  0  0  0  0  0  0
    4.3800   41.3100   50.2700 C   0  0  0  0  0  0  0  0  0  0  0  0
    5.6130   41.1700   49.7120 N   0  0  0  0  0  0  0  0  0  0  0  0
    6.5030   42.1950   49.6800 C   0  0  0  0  0  0  0  0  0  0  0  0
    6.1620   43.4340   50.2250 C   0  0  0  0  0  0  0  0  0  0  0  0
    7.0430   44.4630   50.1850 F   0  0  0  0  0  0  0  0  0  0  0  0
    4.9030   43.6050   50.8040 C   0  0  0  0  0  0  0  0  0  0  0  0
    1.7310   46.0430   52.7960 C   0  0  0  0  0  0  0  0  0  0  0  0
    2.8680   46.6520   52.5700 O   0  0  0  0  0  0  0  0  0  0  0  0
    5.9310   46.4730   54.5250 C   0  0  0  0  0  0  0  0  0  0  0  0
    7.2780   46.8460   54.5320 C   0  0  0  0  0  0  0  0  0  0  0  0
  1  2  1  0
  2  3  1  0
  3  4  2  0
  4  5  1  0
  5  6  2  0
  6  7  1  0
  7  8  2  0
  8  9  1  0
  9 10  1  0
 10 11  1  0
 11 12  1  0
 12 13  1  0
 13 14  2  0
 13 15  1  0
 15 16  2  0
 16 17  1  0
 17 18  2  0
 18 19  1  0
 19 20  1  0
 19 21  2  0
  9 22  2  0
 22 23  1  0
  6 24  1  0
 24 25  2  0
 25  3  1  0
 23  7  1  0
 21 15  1  0
M  END
>  <meeko>  (1) 
{"is_sidechain": [false], "free_energy": -8.551, "intermolecular_energy": -11.55, "internal_energy": -1.389}

$$$$
