ligand_84_conformer_3_docked
     RDKit          3D

 28 30  0  0  0  0  0  0  0  0999 V2000
    2.9730   47.9540   52.6290 C   0  0  0  0  0  0  0  0  0  0  0  0
    3.8340   46.9980   51.9230 N   0  0  0  0  0  0  0  0  0  0  0  0
    3.2940   46.2110   50.8080 C   0  0  0  0  0  0  0  0  0  0  0  0
    5.2090   46.8510   52.3480 C   0  0  0  0  0  0  0  0  0  0  0  0
    5.6390   47.5580   53.3030 O   0  0  0  0  0  0  0  0  0  0  0  0
    6.1710   45.9120   51.6460 C   0  0  2  0  0  0  0  0  0  0  0  0
    5.8160   44.5130   51.9140 N   0  0  0  0  0  0  0  0  0  0  0  0
    5.6890   43.5440   50.8630 C   0  0  0  0  0  0  0  0  0  0  0  0
    6.1490   43.7870   49.7130 O   0  0  0  0  0  0  0  0  0  0  0  0
    4.9520   42.2670   51.1140 C   0  0  0  0  0  0  0  0  0  0  0  0
    3.5680   42.5780   51.5910 C   0  0  0  0  0  0  0  0  0  0  0  0
    2.4300   42.3710   50.8170 C   0  0  0  0  0  0  0  0  0  0  0  0
    1.1150   42.9710   51.6750 S   0  0  0  0  0  0  0  0  0  0  0  0
    2.0430   43.4670   52.9940 C   0  0  0  0  0  0  0  0  0  0  0  0
    1.5650   44.1780   54.1590 N   0  0  0  0  0  0  0  0  0  0  0  0
    0.1340   44.0630   54.5000 C   0  0  0  0  0  0  0  0  0  0  0  0
   -0.3180   45.1460   55.4860 C   0  0  0  0  0  0  0  0  0  0  0  0
    0.5840   45.1460   56.7190 C   0  0  0  0  0  0  0  0  0  0  0  0
    1.9700   45.3540   56.3190 N   0  0  0  0  0  0  0  0  0  0  0  0
    2.4620   44.8540   55.0720 C   0  0  0  0  0  0  0  0  0  0  0  0
    3.6670   45.0610   54.7650 O   0  0  0  0  0  0  0  0  0  0  0  0
    3.3520   43.1950   52.7850 N   0  0  0  0  0  0  0  0  0  0  0  0
    7.5930   46.1820   52.0960 C   0  0  0  0  0  0  0  0  0  0  0  0
    7.9350   46.0900   53.4580 C   0  0  0  0  0  0  0  0  0  0  0  0
    9.2420   46.3600   53.8790 C   0  0  0  0  0  0  0  0  0  0  0  0
   10.2170   46.7310   52.9490 C   0  0  0  0  0  0  0  0  0  0  0  0
    9.8860   46.8340   51.5960 C   0  0  0  0  0  0  0  0  0  0  0  0
    8.5830   46.5640   51.1690 C   0  0  0  0  0  0  0  0  0  0  0  0
  1  2  1  0
  2  3  1  0
  2  4  1  0
  4  5  2  0
  4  6  1  0
  6  7  1  1
  7  8  1  0
  8  9  2  0
  8 10  1  0
 10 11  1  0
 11 12  2  0
 12 13  1  0
 13 14  1  0
 14 15  1  0
 15 16  1  0
 16 17  1  0
 17 18  1  0
 18 19  1  0
 19 20  1  0
 20 21  2  0
 14 22  2  0
  6 23  1  0
 23 24  2  0
 24 25  1  0
 25 26  2  0
 26 27  1  0
 27 28  2  0
 22 11  1  0
 28 23  1  0
 20 15  1  0
M  END
>  <meeko>  (1) 
{"is_sidechain": [false], "free_energy": -8.844, "intermolecular_energy": -11.946, "internal_energy": -0.481}

$$$$
