ligand_48_conformer_5_docked
     RDKit          3D

 27 30  0  0  0  0  0  0  0  0999 V2000
    0.6920   45.4660   57.4390 C   0  0  0  0  0  0  0  0  0  0  0  0
   -0.3010   45.9950   56.3990 C   0  0  0  0  0  0  0  0  0  0  0  0
   -1.4770   46.7310   57.0480 C   0  0  0  0  0  0  0  0  0  0  0  0
   -0.7740   44.9090   55.4620 C   0  0  0  0  0  0  0  0  0  0  0  0
   -2.0690   44.5220   55.3900 N   0  0  0  0  0  0  0  0  0  0  0  0
   -2.1510   43.5460   54.4930 N   0  0  0  0  0  0  0  0  0  0  0  0
   -0.9020   43.3540   54.0340 C   0  0  0  0  0  0  0  0  0  0  0  0
   -0.5060   42.4160   53.0870 C   0  0  0  0  0  0  0  0  0  0  0  0
    0.8540   42.3700   52.7490 C   0  0  0  0  0  0  0  0  0  0  0  0
    1.7750   43.2580   53.3470 C   0  0  0  0  0  0  0  0  0  0  0  0
    3.1670   43.1860   52.9980 N   0  0  0  0  0  0  0  0  0  0  0  0
    3.8130   44.1500   52.1530 C   0  0  0  0  0  0  0  0  0  0  0  0
    3.1510   44.7000   51.2320 O   0  0  0  0  0  0  0  0  0  0  0  0
    5.2180   44.4530   52.3120 N   0  0  0  0  0  0  0  0  0  0  0  0
    5.7080   44.9820   53.5950 C   0  0  0  0  0  0  0  0  0  0  0  0
    5.1710   46.3940   53.8880 C   0  0  0  0  0  0  0  0  0  0  0  0
    5.9080   47.5120   53.1010 C   0  0  0  0  0  0  0  0  0  0  0  0
    7.3280   47.1080   52.7570 C   0  0  0  0  0  0  0  0  0  0  0  0
    8.3610   47.5000   53.6290 C   0  0  0  0  0  0  0  0  0  0  0  0
    9.6850   47.1480   53.3700 C   0  0  0  0  0  0  0  0  0  0  0  0
   10.0000   46.3850   52.2480 C   0  0  0  0  0  0  0  0  0  0  0  0
    8.9900   45.9680   51.3820 C   0  0  0  0  0  0  0  0  0  0  0  0
    7.6490   46.3250   51.6130 C   0  0  0  0  0  0  0  0  0  0  0  0
    6.5900   45.7580   50.6950 C   0  0  0  0  0  0  0  0  0  0  0  0
    6.1420   44.3710   51.1660 C   0  0  0  0  0  0  0  0  0  0  0  0
    1.3090   44.1710   54.3160 C   0  0  0  0  0  0  0  0  0  0  0  0
   -0.0180   44.1810   54.6110 N   0  0  0  0  0  0  0  0  0  0  0  0
  1  2  1  0
  2  3  1  0
  2  4  1  0
  4  5  2  0
  5  6  1  0
  6  7  2  0
  7  8  1  0
  8  9  2  0
  9 10  1  0
 10 11  1  0
 11 12  1  0
 12 13  2  0
 12 14  1  0
 14 15  1  0
 15 16  1  0
 16 17  1  0
 17 18  1  0
 18 19  2  0
 19 20  1  0
 20 21  2  0
 21 22  1  0
 22 23  2  0
 23 24  1  0
 24 25  1  0
 10 26  2  0
 26 27  1  0
 27  4  1  0
 27  7  1  0
 25 14  1  0
 23 18  1  0
M  END
>  <meeko>  (1) 
{"is_sidechain": [false], "free_energy": -7.48, "intermolecular_energy": -11.415, "internal_energy": 0.175}

$$$$
