ligand_88_conformer_4_docked
     RDKit          3D

 25 27  0  0  0  0  0  0  0  0999 V2000
    5.8050   41.5070   49.2180 C   0  0  0  0  0  0  0  0  0  0  0  0
    6.4070   42.8220   49.6150 C   0  0  0  0  0  0  0  0  0  0  0  0
    7.7210   43.1390   49.2400 C   0  0  0  0  0  0  0  0  0  0  0  0
    8.2960   44.3470   49.6430 C   0  0  0  0  0  0  0  0  0  0  0  0
    7.5760   45.2470   50.4450 C   0  0  0  0  0  0  0  0  0  0  0  0
    8.2080   46.5420   50.9080 C   0  0  0  0  0  0  0  0  0  0  0  0
    7.6440   47.0620   52.2630 C   0  0  0  0  0  0  0  0  0  0  0  0
    8.1190   48.5130   52.5100 C   0  0  0  0  0  0  0  0  0  0  0  0
    8.1910   46.1940   53.4160 C   0  0  0  0  0  0  0  0  0  0  0  0
    6.1670   47.0330   52.2630 N   0  0  0  0  0  0  0  0  0  0  0  0
    5.3400   47.1230   53.4390 C   0  0  0  0  0  0  0  0  0  0  0  0
    5.8290   47.4970   54.5390 O   0  0  0  0  0  0  0  0  0  0  0  0
    3.9120   46.7670   53.3860 C   0  0  0  0  0  0  0  0  0  0  0  0
    3.2580   45.8410   54.1780 C   0  0  0  0  0  0  0  0  0  0  0  0
    1.9490   45.9280   53.7550 C   0  0  0  0  0  0  0  0  0  0  0  0
    0.8140   45.1550   54.2730 C   0  0  0  0  0  0  0  0  0  0  0  0
    0.1380   44.1590   53.5940 C   0  0  0  0  0  0  0  0  0  0  0  0
   -0.8410   43.7500   54.4740 C   0  0  0  0  0  0  0  0  0  0  0  0
   -0.7220   44.4680   55.6070 N   0  0  0  0  0  0  0  0  0  0  0  0
   -1.6060   44.3940   56.7610 C   0  0  0  0  0  0  0  0  0  0  0  0
    0.2700   45.3360   55.4930 N   0  0  0  0  0  0  0  0  0  0  0  0
    1.8640   46.8290   52.8050 O   0  0  0  0  0  0  0  0  0  0  0  0
    3.0270   47.3580   52.5590 N   0  0  0  0  0  0  0  0  0  0  0  0
    6.2620   44.9240   50.8230 C   0  0  0  0  0  0  0  0  0  0  0  0
    5.6850   43.7160   50.4190 C   0  0  0  0  0  0  0  0  0  0  0  0
  1  2  1  0
  2  3  2  0
  3  4  1  0
  4  5  2  0
  5  6  1  0
  6  7  1  0
  7  8  1  0
  7  9  1  0
  7 10  1  0
 10 11  1  0
 11 12  2  0
 11 13  1  0
 13 14  1  0
 14 15  2  0
 15 16  1  0
 16 17  1  0
 17 18  2  0
 18 19  1  0
 19 20  1  0
 19 21  1  0
 15 22  1  0
 22 23  1  0
  5 24  1  0
 24 25  2  0
 25  2  1  0
 23 13  2  0
 21 16  2  0
M  END
>  <meeko>  (1) 
{"is_sidechain": [false], "free_energy": -9.441, "intermolecular_energy": -12.2, "internal_energy": 0.812}

$$$$
