ligand_86_conformer_4_docked
     RDKit          3D

 24 27  0  0  0  0  0  0  0  0999 V2000
    7.9780   44.8350   49.4460 O   0  0  0  0  0  0  0  0  0  0  0  0
    7.2700   44.8250   50.4900 C   0  0  0  0  0  0  0  0  0  0  0  0
    7.5400   45.7670   51.5410 N   0  0  0  0  0  0  0  0  0  0  0  0
    8.3980   46.9420   51.3360 C   0  0  0  0  0  0  0  0  0  0  0  0
    7.9550   48.1010   52.2440 C   0  0  0  0  0  0  0  0  0  0  0  0
    8.3430   47.8200   53.7010 C   0  0  0  0  0  0  0  0  0  0  0  0
    9.7420   47.6310   53.8190 O   0  0  0  0  0  0  0  0  0  0  0  0
   10.1300   46.4590   53.1260 C   0  0  0  0  0  0  0  0  0  0  0  0
    9.8740   46.6020   51.6160 C   0  0  0  0  0  0  0  0  0  0  0  0
    6.1820   43.8290   50.6230 C   0  0  0  0  0  0  0  0  0  0  0  0
    6.2210   42.6300   49.8950 C   0  0  0  0  0  0  0  0  0  0  0  0
    5.2190   41.7220   50.0120 N   0  0  0  0  0  0  0  0  0  0  0  0
    4.1470   41.9360   50.8190 C   0  0  0  0  0  0  0  0  0  0  0  0
    4.0430   43.1220   51.5620 C   0  0  0  0  0  0  0  0  0  0  0  0
    2.8710   43.3710   52.4400 C   0  0  0  0  0  0  0  0  0  0  0  0
    1.6390   42.7120   52.2020 C   0  0  0  0  0  0  0  0  0  0  0  0
    0.5280   42.9480   53.0290 C   0  0  0  0  0  0  0  0  0  0  0  0
    0.6710   43.8430   54.0850 C   0  0  0  0  0  0  0  0  0  0  0  0
    1.8490   44.4850   54.3270 C   0  0  0  0  0  0  0  0  0  0  0  0
    2.9700   44.2740   53.5250 C   0  0  0  0  0  0  0  0  0  0  0  0
    1.7080   45.3710   55.5120 C   0  0  0  0  0  0  0  0  0  0  0  0
    0.2350   45.1430   55.9310 C   0  0  0  0  0  0  0  0  0  0  0  0
   -0.2950   44.2010   54.9990 O   0  0  0  0  0  0  0  0  0  0  0  0
    5.0740   44.0710   51.4520 C   0  0  0  0  0  0  0  0  0  0  0  0
  1  2  2  0
  2  3  1  0
  3  4  1  0
  4  5  1  0
  5  6  1  0
  6  7  1  0
  7  8  1  0
  8  9  1  0
  2 10  1  0
 10 11  2  0
 11 12  1  0
 12 13  2  0
 13 14  1  0
 14 15  1  0
 15 16  2  0
 16 17  1  0
 17 18  2  0
 18 19  1  0
 19 20  2  0
 19 21  1  0
 21 22  1  0
 22 23  1  0
 14 24  2  0
  9  4  1  0
 24 10  1  0
 20 15  1  0
 23 18  1  0
M  END
>  <meeko>  (1) 
{"is_sidechain": [false], "free_energy": -9.056, "intermolecular_energy": -10.645, "internal_energy": -0.642}

$$$$
