ligand_41_conformer_5_docked
     RDKit          3D

 25 27  0  0  0  0  0  0  0  0999 V2000
    6.3560   41.1070   49.4510 C   0  0  0  0  0  0  0  0  0  0  0  0
    6.0040   42.4470   49.9110 N   0  0  0  0  0  0  0  0  0  0  0  0
    6.7600   43.5090   49.6780 N   0  0  0  0  0  0  0  0  0  0  0  0
    6.1620   44.5770   50.2390 C   0  0  0  0  0  0  0  0  0  0  0  0
    4.9810   44.1780   50.8350 C   0  0  0  0  0  0  0  0  0  0  0  0
    4.0160   45.0660   51.5080 C   0  0  0  0  0  0  0  0  0  0  0  0
    2.9470   45.3600   50.9090 O   0  0  0  0  0  0  0  0  0  0  0  0
    4.2570   45.5740   52.8350 N   0  0  0  0  0  0  0  0  0  0  0  0
    3.6450   46.8560   53.2160 C   0  0  0  0  0  0  0  0  0  0  0  0
    3.9940   47.2520   54.6580 C   0  0  0  0  0  0  0  0  0  0  0  0
    5.4670   46.9570   54.9600 C   0  0  0  0  0  0  0  0  0  0  0  0
    6.2850   47.7270   54.0730 O   0  0  0  0  0  0  0  0  0  0  0  0
    7.5080   47.3140   53.5180 C   0  0  0  0  0  0  0  0  0  0  0  0
    7.5490   47.0290   52.1480 C   0  0  0  0  0  0  0  0  0  0  0  0
    8.7370   46.6060   51.5450 C   0  0  0  0  0  0  0  0  0  0  0  0
    9.8990   46.4680   52.3100 C   0  0  0  0  0  0  0  0  0  0  0  0
   11.3900   45.9360   51.5530 Cl  0  0  0  0  0  0  0  0  0  0  0  0
    9.8720   46.7540   53.6770 C   0  0  0  0  0  0  0  0  0  0  0  0
    8.6850   47.1770   54.2830 C   0  0  0  0  0  0  0  0  0  0  0  0
    5.7710   45.4460   54.8160 C   0  0  0  0  0  0  0  0  0  0  0  0
    4.8120   44.6930   53.8740 C   0  0  0  0  0  0  0  0  0  0  0  0
    4.9240   42.8040   50.6440 C   0  0  0  0  0  0  0  0  0  0  0  0
    3.8630   41.8570   51.1440 C   0  0  0  0  0  0  0  0  0  0  0  0
    3.7120   41.9750   52.5130 F   0  0  0  0  0  0  0  0  0  0  0  0
    2.6430   42.1360   50.5590 F   0  0  0  0  0  0  0  0  0  0  0  0
  1  2  1  0
  2  3  1  0
  3  4  2  0
  4  5  1  0
  5  6  1  0
  6  7  2  0
  6  8  1  0
  8  9  1  0
  9 10  1  0
 10 11  1  0
 11 12  1  0
 12 13  1  0
 13 14  2  0
 14 15  1  0
 15 16  2  0
 16 17  1  0
 16 18  1  0
 18 19  2  0
 11 20  1  0
 20 21  1  0
  5 22  2  0
 22 23  1  0
 23 24  1  0
 23 25  1  0
 22  2  1  0
 21  8  1  0
 19 13  1  0
M  END
>  <meeko>  (1) 
{"is_sidechain": [false], "free_energy": -8.838, "intermolecular_energy": -10.905, "internal_energy": -1.162}

$$$$
