ligand_0_conformer_5_docked
     RDKit          3D

 24 27  0  0  0  0  0  0  0  0999 V2000
    7.3140   42.5910   49.4690 C   0  0  0  0  0  0  0  0  0  0  0  0
    6.5280   41.4830   49.7950 C   0  0  0  0  0  0  0  0  0  0  0  0
    5.3200   41.6580   50.4800 C   0  0  0  0  0  0  0  0  0  0  0  0
    4.8820   42.9450   50.8310 C   0  0  0  0  0  0  0  0  0  0  0  0
    3.6330   43.1000   51.5240 N   0  0  0  0  0  0  0  0  0  0  0  0
    3.4990   43.8030   52.7680 C   0  0  0  0  0  0  0  0  0  0  0  0
    4.5950   44.3680   53.3720 N   0  0  0  0  0  0  0  0  0  0  0  0
    4.4940   45.0850   54.5290 C   0  0  0  0  0  0  0  0  0  0  0  0
    5.6180   45.6510   55.1400 O   0  0  0  0  0  0  0  0  0  0  0  0
    6.2440   46.8470   54.6700 C   0  0  0  0  0  0  0  0  0  0  0  0
    7.4330   46.5360   53.7420 C   0  0  0  0  0  0  0  0  0  0  0  0
    8.7720   46.9140   54.4260 C   0  0  0  0  0  0  0  0  0  0  0  0
    9.9180   47.1870   53.4290 C   0  0  0  0  0  0  0  0  0  0  0  0
    9.7220   46.4320   52.1110 C   0  0  0  0  0  0  0  0  0  0  0  0
    8.4140   46.8480   51.4080 C   0  0  0  0  0  0  0  0  0  0  0  0
    7.2890   47.2510   52.3860 C   0  0  0  0  0  0  0  0  0  0  0  0
    3.2290   45.2290   55.0760 C   0  0  0  0  0  0  0  0  0  0  0  0
    2.8360   45.8700   56.1820 N   0  0  0  0  0  0  0  0  0  0  0  0
    1.4940   45.6700   56.2080 C   0  0  0  0  0  0  0  0  0  0  0  0
    1.0300   44.9290   55.1640 N   0  0  0  0  0  0  0  0  0  0  0  0
    2.1550   44.6700   54.4760 C   0  0  0  0  0  0  0  0  0  0  0  0
    2.2570   43.9600   53.3260 N   0  0  0  0  0  0  0  0  0  0  0  0
    5.6960   44.0520   50.5240 C   0  0  0  0  0  0  0  0  0  0  0  0
    6.9010   43.8730   49.8370 C   0  0  0  0  0  0  0  0  0  0  0  0
  1  2  2  0
  2  3  1  0
  3  4  2  0
  4  5  1  0
  5  6  1  0
  6  7  2  0
  7  8  1  0
  8  9  1  0
  9 10  1  0
 10 11  1  0
 11 12  1  0
 12 13  1  0
 13 14  1  0
 14 15  1  0
 15 16  1  0
  8 17  2  0
 17 18  1  0
 18 19  1  0
 19 20  2  0
 20 21  1  0
 21 22  2  0
  4 23  1  0
 23 24  2  0
 24  1  1  0
 22  6  1  0
 16 11  1  0
 21 17  1  0
M  END
>  <meeko>  (1) 
{"is_sidechain": [false], "free_energy": -9.725, "intermolecular_energy": -12.568, "internal_energy": -0.761}

$$$$
