
     RDKit          3D

 11 10  0  0  0  0  0  0  0  0999 V2000
   48.7450   67.0290   30.7330 N   0  0  0  0  0  0  0  0  0  0  0  0
   48.2960   67.9680   29.7190 C   0  0  0  0  0  0  0  0  0  0  0  0
   46.8860   68.5060   30.1410 C   0  0  0  0  0  0  0  0  0  0  0  0
   46.3940   69.6870   29.2680 C   0  0  0  0  0  0  0  0  0  0  0  0
   45.9420   67.4040   30.1660 O   0  0  0  0  0  0  0  0  0  0  0  0
   45.3100   67.0030   31.6530 P   0  0  0  0  0  0  0  0  0  0  0  0
   44.4920   65.7860   31.3670 O   0  0  0  0  0  0  0  0  0  0  0  0
   46.6060   66.6040   32.5430 O   0  0  0  0  0  0  0  0  0  0  0  0
   44.7060   68.2830   32.2850 O   0  0  0  0  0  0  0  0  0  0  0  0
   49.3130   69.0890   29.4820 C   0  0  0  0  0  0  0  0  0  0  0  0
   49.7900   69.7550   30.4320 O   0  0  0  0  0  0  0  0  0  0  0  0
  1  2  1  0
  2  3  1  0
  2 10  1  0
  3  4  1  0
  3  5  1  0
  5  6  1  0
  6  7  2  0
  6  8  1  0
  6  9  1  0
 10 11  2  0
M  END
$$$$
