REMARK SMILES Cc1ccc(CC(C)(C)NC(=O)c2cc(-c3ccn(C)n3)on2)cc1
REMARK SMILES IDX 10 1 11 2 12 3 7 5 8 6 9 7 6 8 5 9 2 10 3 11 25 12 4 13
REMARK SMILES IDX 24 14 1 15 13 16 14 17 23 18 15 19 22 20 16 21 17 22 21 23
REMARK SMILES IDX 18 24 19 25 20 26
REMARK H PARENT 10 4
ROOT
ATOM      1  N   UNL     1       1.970   0.949   1.359  1.00  0.00    -0.345 N 
ATOM      2  C   UNL     1       2.709   1.334   0.184  1.00  0.00     0.273 C 
ATOM      3  O   UNL     1       3.484   2.327   0.211  1.00  0.00    -0.267 OA
ATOM      4  H   UNL     1       1.609  -0.028   1.383  1.00  0.00     0.164 HD
ENDROOT
BRANCH   1   5
ATOM      5  C   UNL     1       1.738   1.811   2.535  1.00  0.00     0.039 C 
ATOM      6  C   UNL     1       1.230   3.204   2.096  1.00  0.00     0.035 C 
ATOM      7  C   UNL     1       3.058   1.972   3.314  1.00  0.00     0.035 C 
BRANCH   5   8
ATOM      8  C   UNL     1       0.697   1.141   3.486  1.00  0.00     0.063 C 
BRANCH   8   9
ATOM      9  C   UNL     1      -0.662   0.911   2.856  1.00  0.00    -0.046 A 
ATOM     10  C   UNL     1      -3.189   0.492   1.680  1.00  0.00    -0.051 A 
ATOM     11  C   UNL     1      -2.219  -0.520   1.652  1.00  0.00     0.004 A 
ATOM     12  C   UNL     1      -2.887   1.718   2.290  1.00  0.00     0.004 A 
ATOM     13  C   UNL     1      -0.970  -0.317   2.247  1.00  0.00     0.004 A 
ATOM     14  C   UNL     1      -1.638   1.922   2.884  1.00  0.00     0.004 A 
ATOM     15  C   UNL     1      -4.513   0.289   1.005  1.00  0.00     0.044 C 
ENDBRANCH   8   9
ENDBRANCH   5   8
ENDBRANCH   1   5
BRANCH   2  16
ATOM     16  C   UNL     1       2.580   0.567  -1.066  1.00  0.00     0.171 A 
ATOM     17  C   UNL     1       1.677  -0.446  -1.326  1.00  0.00     0.090 A 
ATOM     18  N   UNL     1       3.336   0.790  -2.160  1.00  0.00    -0.074 NA
ATOM     19  C   UNL     1       1.957  -0.798  -2.629  1.00  0.00     0.187 A 
ATOM     20  O   UNL     1       2.937  -0.046  -3.074  1.00  0.00    -0.354 OA
BRANCH  19  21
ATOM     21  C   UNL     1       1.280  -1.835  -3.414  1.00  0.00     0.130 A 
ATOM     22  C   UNL     1       1.575  -2.182  -4.720  1.00  0.00     0.054 A 
ATOM     23  N   UNL     1       0.275  -2.601  -2.947  1.00  0.00    -0.170 NA
ATOM     24  C   UNL     1       0.689  -3.198  -5.011  1.00  0.00     0.109 A 
ATOM     25  N   UNL     1      -0.082  -3.413  -3.929  1.00  0.00    -0.275 N 
ATOM     26  C   UNL     1      -1.100  -4.447  -3.798  1.00  0.00     0.173 C 
ENDBRANCH  19  21
ENDBRANCH   2  16
TORSDOF 5
