REMARK SMILES CN1CC[C@](C)(CNC(=O)Nc2ccc(-c3ncco3)cc2)C1
REMARK SMILES IDX 8 1 9 2 10 3 11 4 7 7 5 8 2 9 3 10 23 11 4 12 1 13 6 14
REMARK SMILES IDX 12 15 13 16 22 17 14 18 21 19 15 20 16 21 17 22 20 23 18 24
REMARK SMILES IDX 19 25
REMARK H PARENT 8 5 11 6
ROOT
ATOM      1  N   UNL     1       0.008   1.473  -0.488  1.00  0.00    -0.337 N 
ATOM      2  C   UNL     1       0.383   0.109  -0.723  1.00  0.00     0.319 C 
ATOM      3  O   UNL     1       0.011  -0.796   0.072  1.00  0.00    -0.249 OA
ATOM      4  N   UNL     1       1.156  -0.221  -1.888  1.00  0.00    -0.308 N 
ATOM      5  H   UNL     1       0.370   2.209  -1.135  1.00  0.00     0.165 HD
ATOM      6  H   UNL     1       1.209   0.492  -2.650  1.00  0.00     0.171 HD
ENDROOT
BRANCH   1   7
ATOM      7  C   UNL     1      -0.904   1.882   0.583  1.00  0.00     0.125 C 
BRANCH   7   8
ATOM      8  C   UNL     1      -2.361   2.028   0.070  1.00  0.00    -0.001 C 
ATOM      9  N   UNL     1      -4.642   1.967   0.832  1.00  0.00    -0.306 NA
ATOM     10  C   UNL     1      -4.451   0.804  -0.051  1.00  0.00     0.085 C 
ATOM     11  C   UNL     1      -3.303   2.446   1.203  1.00  0.00     0.092 C 
ATOM     12  C   UNL     1      -2.963   0.693  -0.369  1.00  0.00     0.025 C 
ATOM     13  C   UNL     1      -5.447   1.636   2.017  1.00  0.00     0.105 C 
ATOM     14  C   UNL     1      -2.435   3.062  -1.079  1.00  0.00     0.014 C 
ENDBRANCH   7   8
ENDBRANCH   1   7
BRANCH   4  15
ATOM     15  C   UNL     1       1.747  -1.510  -2.126  1.00  0.00     0.042 A 
ATOM     16  C   UNL     1       1.853  -1.985  -3.441  1.00  0.00     0.027 A 
ATOM     17  C   UNL     1       2.278  -2.280  -1.076  1.00  0.00     0.027 A 
ATOM     18  C   UNL     1       2.442  -3.225  -3.703  1.00  0.00     0.016 A 
ATOM     19  C   UNL     1       2.869  -3.520  -1.337  1.00  0.00     0.016 A 
ATOM     20  C   UNL     1       2.952  -4.006  -2.652  1.00  0.00     0.037 A 
BRANCH  20  21
ATOM     21  C   UNL     1       3.577  -5.317  -2.921  1.00  0.00     0.225 A 
ATOM     22  N   UNL     1       3.700  -5.852  -4.155  1.00  0.00    -0.218 NA
ATOM     23  O   UNL     1       4.076  -6.093  -1.984  1.00  0.00    -0.445 OA
ATOM     24  C   UNL     1       4.315  -7.028  -3.926  1.00  0.00     0.154 A 
ATOM     25  C   UNL     1       4.542  -7.164  -2.576  1.00  0.00     0.218 A 
ENDBRANCH  20  21
ENDBRANCH   4  15
TORSDOF 4
