REMARK SMILES Cc1cccc(C[C@@H](CO)NC(=O)c2c[nH]nc2-c2cccc(Cl)c2)c1
REMARK SMILES IDX 11 1 12 2 13 3 8 5 7 6 6 7 2 8 3 9 26 10 4 11 5 12 1 13 9 14
REMARK SMILES IDX 10 15 14 17 15 18 18 19 16 20 17 21 19 23 20 24 25 25 21 26
REMARK SMILES IDX 23 27 22 28 24 29
REMARK H PARENT 11 4 10 16 16 22
ROOT
ATOM      1  N   UNL     1       0.858   2.338   0.494  1.00  0.00    -0.347 N 
ATOM      2  C   UNL     1       1.071   1.134  -0.262  1.00  0.00     0.255 C 
ATOM      3  O   UNL     1       0.804   1.119  -1.494  1.00  0.00    -0.269 OA
ATOM      4  H   UNL     1       1.165   2.374   1.490  1.00  0.00     0.164 HD
ENDROOT
BRANCH   1   5
ATOM      5  C   UNL     1      -0.069   3.382   0.036  1.00  0.00     0.112 C 
BRANCH   5   6
ATOM      6  C   UNL     1      -1.474   3.141   0.623  1.00  0.00     0.062 C 
BRANCH   6   7
ATOM      7  C   UNL     1      -2.005   1.778   0.251  1.00  0.00    -0.046 A 
ATOM      8  C   UNL     1      -2.302  -0.584   0.778  1.00  0.00    -0.051 A 
ATOM      9  C   UNL     1      -2.815  -0.800  -0.510  1.00  0.00     0.003 A 
ATOM     10  C   UNL     1      -1.887   0.704   1.149  1.00  0.00     0.007 A 
ATOM     11  C   UNL     1      -2.932   0.265  -1.407  1.00  0.00     0.001 A 
ATOM     12  C   UNL     1      -2.529   1.549  -1.030  1.00  0.00     0.004 A 
ATOM     13  C   UNL     1      -2.119  -1.731   1.726  1.00  0.00     0.044 C 
ENDBRANCH   6   7
ENDBRANCH   5   6
BRANCH   5  14
ATOM     14  C   UNL     1       0.457   4.763   0.448  1.00  0.00     0.181 C 
BRANCH  14  15
ATOM     15  O   UNL     1       1.711   4.985  -0.136  1.00  0.00    -0.394 OA
ATOM     16  H   UNL     1       2.001   5.883   0.170  1.00  0.00     0.210 HD
ENDBRANCH  14  15
ENDBRANCH   5  14
ENDBRANCH   1   5
BRANCH   2  17
ATOM     17  C   UNL     1       1.532  -0.107   0.401  1.00  0.00     0.085 A 
ATOM     18  C   UNL     1       1.961  -0.243   1.709  1.00  0.00     0.119 A 
ATOM     19  C   UNL     1       1.480  -1.413  -0.079  1.00  0.00     0.105 A 
ATOM     20  N   UNL     1       2.143  -1.550   1.967  1.00  0.00    -0.284 N 
ATOM     21  N   UNL     1       1.845  -2.267   0.897  1.00  0.00    -0.175 NA
ATOM     22  H   UNL     1       2.454  -1.957   2.877  1.00  0.00     0.189 HD
BRANCH  19  23
ATOM     23  C   UNL     1       1.009  -1.865  -1.399  1.00  0.00     0.004 A 
ATOM     24  C   UNL     1       1.645  -1.433  -2.573  1.00  0.00     0.010 A 
ATOM     25  C   UNL     1      -0.069  -2.759  -1.486  1.00  0.00     0.031 A 
ATOM     26  C   UNL     1       1.183  -1.862  -3.821  1.00  0.00     0.002 A 
ATOM     27  C   UNL     1      -0.536  -3.179  -2.736  1.00  0.00     0.041 A 
ATOM     28  C   UNL     1       0.089  -2.728  -3.904  1.00  0.00     0.020 A 
ATOM     29  Cl  UNL     1      -1.910  -4.263  -2.838  1.00  0.00    -0.084 Cl
ENDBRANCH  19  23
ENDBRANCH   2  17
TORSDOF 7
