REMARK SMILES CN1CCc2ccc(NC(=O)CN3CCCNC3=O)cc2C1=O
REMARK SMILES IDX 9 1 10 2 11 3 8 5 2 6 3 7 22 8 4 9 21 10 23 11 5 12 20 13
REMARK SMILES IDX 6 14 7 15 1 16 12 17 13 18 14 19 18 20 15 21 17 22 19 23
REMARK SMILES IDX 16 24
REMARK H PARENT 9 4 17 25
ROOT
ATOM      1  N   UNL     1      -1.149  -1.481   0.267  1.00  0.00    -0.325 N 
ATOM      2  C   UNL     1      -2.357  -0.762  -0.029  1.00  0.00     0.244 C 
ATOM      3  O   UNL     1      -2.312   0.385  -0.551  1.00  0.00    -0.273 OA
ATOM      4  H   UNL     1      -1.213  -2.289   0.926  1.00  0.00     0.169 HD
ENDROOT
BRANCH   1   5
ATOM      5  C   UNL     1       0.157  -1.079  -0.179  1.00  0.00     0.042 A 
ATOM      6  N   UNL     1       3.220   0.662  -3.662  1.00  0.00    -0.341 N 
ATOM      7  C   UNL     1       4.314  -0.021  -2.959  1.00  0.00     0.124 C 
ATOM      8  C   UNL     1       1.871   0.476  -3.196  1.00  0.00     0.253 C 
ATOM      9  C   UNL     1       4.128   0.085  -1.441  1.00  0.00     0.058 C 
ATOM     10  C   UNL     1       1.643  -0.138  -1.870  1.00  0.00     0.045 A 
ATOM     11  O   UNL     1       0.896   0.849  -3.904  1.00  0.00    -0.269 OA
ATOM     12  C   UNL     1       2.749  -0.371  -1.028  1.00  0.00    -0.033 A 
ATOM     13  C   UNL     1       0.354  -0.502  -1.446  1.00  0.00     0.040 A 
ATOM     14  C   UNL     1       2.549  -0.952   0.232  1.00  0.00     0.007 A 
ATOM     15  C   UNL     1       1.266  -1.316   0.645  1.00  0.00     0.026 A 
ATOM     16  C   UNL     1       3.482   1.475  -4.851  1.00  0.00     0.147 C 
ENDBRANCH   1   5
BRANCH   2  17
ATOM     17  C   UNL     1      -3.684  -1.342   0.357  1.00  0.00     0.221 C 
BRANCH  17  18
ATOM     18  N   UNL     1      -3.848  -1.300   1.814  1.00  0.00    -0.315 N 
ATOM     19  C   UNL     1      -3.829  -2.544   2.594  1.00  0.00     0.124 C 
ATOM     20  C   UNL     1      -4.095  -0.052   2.491  1.00  0.00     0.317 C 
ATOM     21  C   UNL     1      -3.207  -2.308   3.972  1.00  0.00     0.043 C 
ATOM     22  N   UNL     1      -4.085  -0.004   3.922  1.00  0.00    -0.338 N 
ATOM     23  O   UNL     1      -4.293   1.005   1.834  1.00  0.00    -0.249 OA
ATOM     24  C   UNL     1      -3.980  -1.221   4.724  1.00  0.00     0.119 C 
ATOM     25  H   UNL     1      -4.290   0.901   4.403  1.00  0.00     0.165 HD
ENDBRANCH  17  18
ENDBRANCH   2  17
TORSDOF 3
