REMARK SMILES CN1CC[C@@H]2[C@H]1CCCN2C(=O)[C@H]1CCN(c2ccc(-c3nn[nH]n3)cc2F)C1
REMARK SMILES IDX 13 1 14 2 15 3 16 4 29 5 11 6 12 7 10 8 2 9 3 10 6 11 4 12
REMARK SMILES IDX 5 13 7 14 8 15 9 16 1 17 17 18 18 19 27 20 19 21 26 22 20 23
REMARK SMILES IDX 28 24 21 25 22 26 25 27 23 28 24 29
REMARK H PARENT 24 30
ROOT
ATOM      1  C   UNL     1       1.384   0.944  -0.892  1.00  0.00     0.100 C 
ATOM      2  C   UNL     1       2.892   0.684  -0.954  1.00  0.00     0.037 C 
ATOM      3  C   UNL     1       3.140  -0.412   0.072  1.00  0.00     0.117 C 
ATOM      4  N   UNL     1       2.013  -0.357   0.996  1.00  0.00    -0.368 N 
ATOM      5  C   UNL     1       0.979   0.557   0.529  1.00  0.00     0.130 C 
ENDROOT
BRANCH   1   6
ATOM      6  C   UNL     1       0.997   2.364  -1.235  1.00  0.00     0.227 C 
ATOM      7  O   UNL     1       1.713   3.315  -0.812  1.00  0.00    -0.274 OA
BRANCH   6   8
ATOM      8  N   UNL     1      -0.194   2.663  -1.995  1.00  0.00    -0.338 N 
ATOM      9  N   UNL     1      -3.789   1.811  -1.994  1.00  0.00    -0.301 NA
ATOM     10  C   UNL     1      -3.207   0.511  -2.353  1.00  0.00     0.086 C 
ATOM     11  C   UNL     1      -2.707   2.795  -2.144  1.00  0.00     0.079 C 
ATOM     12  C   UNL     1      -1.689   0.636  -2.167  1.00  0.00     0.042 C 
ATOM     13  C   UNL     1      -1.481   2.044  -1.615  1.00  0.00     0.103 C 
ATOM     14  C   UNL     1      -2.525   3.271  -3.620  1.00  0.00     0.023 C 
ATOM     15  C   UNL     1      -1.115   3.772  -3.976  1.00  0.00     0.023 C 
ATOM     16  C   UNL     1      -0.210   3.914  -2.761  1.00  0.00     0.120 C 
ATOM     17  C   UNL     1      -5.041   2.118  -2.703  1.00  0.00     0.105 C 
ENDBRANCH   6   8
ENDBRANCH   1   6
BRANCH   4  18
ATOM     18  C   UNL     1       1.924  -1.160   2.201  1.00  0.00     0.073 A 
ATOM     19  C   UNL     1       2.818  -2.230   2.404  1.00  0.00     0.030 A 
ATOM     20  C   UNL     1       0.956  -0.899   3.199  1.00  0.00     0.147 A 
ATOM     21  C   UNL     1       2.748  -3.019   3.555  1.00  0.00     0.014 A 
ATOM     22  C   UNL     1       0.891  -1.693   4.349  1.00  0.00     0.053 A 
ATOM     23  C   UNL     1       1.783  -2.759   4.537  1.00  0.00     0.026 A 
ATOM     24  F   UNL     1       0.080   0.129   3.090  1.00  0.00    -0.205 F 
BRANCH  23  25
ATOM     25  C   UNL     1       1.709  -3.593   5.755  1.00  0.00     0.204 A 
ATOM     26  N   UNL     1       0.815  -3.415   6.750  1.00  0.00    -0.108 NA
ATOM     27  N   UNL     1       2.526  -4.632   6.019  1.00  0.00    -0.134 NA
ATOM     28  N   UNL     1       1.093  -4.361   7.632  1.00  0.00    -0.050 NA
ATOM     29  N   UNL     1       2.110  -5.079   7.190  1.00  0.00    -0.177 N 
ATOM     30  H   UNL     1       2.528  -5.889   7.698  1.00  0.00     0.216 HD
ENDBRANCH  23  25
ENDBRANCH   4  18
TORSDOF 4
