REMARK SMILES COc1nc(C)cc(N2CCN(C(=O)C3CCCCC3)CC2)n1
REMARK SMILES IDX 3 1 4 2 5 3 6 4 7 5 8 6 23 7 2 8 1 9 9 10 10 11 22 12 11 13
REMARK SMILES IDX 21 14 12 15 13 16 14 17 15 18 16 19 20 20 17 21 19 22 18 23
REMARK H PARENT
ROOT
ATOM      1  C   UNL     1      -3.102   2.727  -1.965  1.00  0.00     0.318 A 
ATOM      2  N   UNL     1      -3.005   4.043  -1.636  1.00  0.00    -0.200 NA
ATOM      3  C   UNL     1      -1.923   4.523  -0.970  1.00  0.00     0.047 A 
ATOM      4  C   UNL     1      -1.832   5.981  -0.649  1.00  0.00     0.067 C 
ATOM      5  C   UNL     1      -0.884   3.655  -0.621  1.00  0.00     0.070 A 
ATOM      6  C   UNL     1      -0.998   2.296  -0.952  1.00  0.00     0.136 A 
ATOM      7  N   UNL     1      -2.104   1.872  -1.624  1.00  0.00    -0.178 NA
ENDROOT
BRANCH   1   8
ATOM      8  O   UNL     1      -4.217   2.240  -2.651  1.00  0.00    -0.467 OA
ATOM      9  C   UNL     1      -5.303   3.071  -3.043  1.00  0.00     0.282 C 
ENDBRANCH   1   8
BRANCH   6  10
ATOM     10  N   UNL     1       0.042   1.350  -0.626  1.00  0.00    -0.353 N 
ATOM     11  C   UNL     1       0.245   0.194  -1.511  1.00  0.00     0.139 C 
ATOM     12  C   UNL     1       0.936   1.566   0.522  1.00  0.00     0.139 C 
ATOM     13  C   UNL     1       1.561  -0.527  -1.208  1.00  0.00     0.141 C 
ATOM     14  C   UNL     1       1.279   0.235   1.202  1.00  0.00     0.141 C 
ATOM     15  N   UNL     1       1.669  -0.799   0.231  1.00  0.00    -0.339 N 
ATOM     16  C   UNL     1       2.276  -2.031   0.679  1.00  0.00     0.225 C 
ATOM     17  O   UNL     1       3.066  -2.642  -0.092  1.00  0.00    -0.275 OA
BRANCH  16  18
ATOM     18  C   UNL     1       1.927  -2.628   2.033  1.00  0.00     0.078 C 
ATOM     19  C   UNL     1       0.496  -3.204   2.032  1.00  0.00     0.013 C 
ATOM     20  C   UNL     1       2.950  -3.681   2.529  1.00  0.00     0.013 C 
ATOM     21  C   UNL     1       0.410  -4.533   1.272  1.00  0.00     0.001 C 
ATOM     22  C   UNL     1       2.818  -5.042   1.823  1.00  0.00     0.001 C 
ATOM     23  C   UNL     1       1.378  -5.560   1.865  1.00  0.00     0.000 C 
ENDBRANCH  16  18
ENDBRANCH   6  10
TORSDOF 3
