REMARK SMILES C[C@@H]1CCCCN1CCC1CCN(c2ncnc3[nH]ncc23)CC1
REMARK SMILES IDX 9 1 8 2 7 3 2 4 3 5 4 6 6 7 5 8 1 9 10 10 11 11 24 12 12 13
REMARK SMILES IDX 23 14 13 15 14 16 15 17 22 18 16 19 21 20 18 21 17 22 20 23
REMARK SMILES IDX 19 24
REMARK H PARENT 19 25
ROOT
ATOM      1  C   UNL     1       0.300  -1.909  -1.024  1.00  0.00     0.019 C 
ENDROOT
BRANCH   1   2
ATOM      2  C   UNL     1      -1.047  -2.609  -1.261  1.00  0.00     0.085 C 
BRANCH   2   3
ATOM      3  N   UNL     1      -1.646  -3.024   0.036  1.00  0.00    -0.301 NA
ATOM      4  C   UNL     1      -1.708  -4.492   0.251  1.00  0.00     0.053 C 
ATOM      5  C   UNL     1      -2.650  -5.188  -0.763  1.00  0.00     0.019 C 
ATOM      6  C   UNL     1      -3.787  -4.265  -1.233  1.00  0.00     0.003 C 
ATOM      7  C   UNL     1      -2.963  -2.390   0.302  1.00  0.00     0.085 C 
ATOM      8  C   UNL     1      -4.170  -3.247  -0.155  1.00  0.00     0.016 C 
ATOM      9  C   UNL     1      -0.314  -5.133   0.284  1.00  0.00     0.024 C 
ENDBRANCH   2   3
ENDBRANCH   1   2
BRANCH   1  10
ATOM     10  C   UNL     1       0.170  -0.547  -0.299  1.00  0.00    -0.006 C 
ATOM     11  C   UNL     1      -0.588   0.489  -1.175  1.00  0.00     0.025 C 
ATOM     12  C   UNL     1       1.563  -0.032   0.152  1.00  0.00     0.025 C 
ATOM     13  C   UNL     1      -0.155   1.929  -0.885  1.00  0.00     0.118 C 
ATOM     14  C   UNL     1       2.184   0.934  -0.863  1.00  0.00     0.118 C 
ATOM     15  N   UNL     1       1.293   2.084  -1.091  1.00  0.00    -0.356 N 
BRANCH  15  16
ATOM     16  C   UNL     1       1.825   3.403  -1.327  1.00  0.00     0.143 A 
ATOM     17  N   UNL     1       1.177   4.501  -0.827  1.00  0.00    -0.219 NA
ATOM     18  C   UNL     1       2.986   3.639  -2.073  1.00  0.00     0.081 A 
ATOM     19  C   UNL     1       1.640   5.775  -1.033  1.00  0.00     0.226 A 
ATOM     20  C   UNL     1       3.878   2.853  -2.782  1.00  0.00     0.149 A 
ATOM     21  C   UNL     1       3.426   4.912  -2.257  1.00  0.00     0.160 A 
ATOM     22  N   UNL     1       2.778   5.990  -1.757  1.00  0.00    -0.217 NA
ATOM     23  N   UNL     1       4.810   3.663  -3.344  1.00  0.00    -0.181 NA
ATOM     24  N   UNL     1       4.529   4.920  -3.016  1.00  0.00    -0.261 N 
ATOM     25  H   UNL     1       5.079   5.754  -3.317  1.00  0.00     0.192 HD
ENDBRANCH  15  16
ENDBRANCH   1  10
TORSDOF 4
