REMARK SMILES c1ccc(Oc2ccnc(N[C@H]3CC[C@@H]4OCC[C@H]4C3)n2)cc1
REMARK SMILES IDX 6 1 7 2 8 3 9 4 10 5 21 6 5 7 4 8 1 9 2 10 23 11 3 12 22 13
REMARK SMILES IDX 11 14 12 16 13 17 20 18 14 19 19 20 15 21 18 22 16 23 17 24
REMARK H PARENT 11 15
ROOT
ATOM      1  C   UNL     1       2.535   1.306  -0.120  1.00  0.00     0.224 A 
ATOM      2  C   UNL     1       3.881   0.962  -0.240  1.00  0.00     0.089 A 
ATOM      3  C   UNL     1       4.206  -0.280  -0.786  1.00  0.00     0.121 A 
ATOM      4  N   UNL     1       3.221  -1.121  -1.193  1.00  0.00    -0.221 NA
ATOM      5  C   UNL     1       1.911  -0.771  -1.081  1.00  0.00     0.226 A 
ATOM      6  N   UNL     1       1.581   0.438  -0.553  1.00  0.00    -0.177 NA
ENDROOT
BRANCH   1   7
ATOM      7  O   UNL     1       2.187   2.555   0.410  1.00  0.00    -0.439 OA
BRANCH   7   8
ATOM      8  C   UNL     1       0.911   2.898   0.880  1.00  0.00     0.129 A 
ATOM      9  C   UNL     1      -1.626   3.663   1.809  1.00  0.00     0.000 A 
ATOM     10  C   UNL     1      -1.195   2.344   1.966  1.00  0.00     0.004 A 
ATOM     11  C   UNL     1      -0.787   4.605   1.205  1.00  0.00     0.004 A 
ATOM     12  C   UNL     1       0.071   1.961   1.513  1.00  0.00     0.047 A 
ATOM     13  C   UNL     1       0.479   4.224   0.749  1.00  0.00     0.047 A 
ENDBRANCH   7   8
ENDBRANCH   1   7
BRANCH   5  14
ATOM     14  N   UNL     1       0.891  -1.678  -1.521  1.00  0.00    -0.351 N 
ATOM     15  H   UNL     1       1.194  -2.579  -1.956  1.00  0.00     0.163 HD
BRANCH  14  16
ATOM     16  C   UNL     1      -0.538  -1.345  -1.452  1.00  0.00     0.082 C 
ATOM     17  C   UNL     1      -1.356  -2.293  -2.376  1.00  0.00     0.027 C 
ATOM     18  C   UNL     1      -1.036  -1.368   0.030  1.00  0.00     0.031 C 
ATOM     19  C   UNL     1      -1.459  -3.752  -1.851  1.00  0.00     0.034 C 
ATOM     20  C   UNL     1      -1.881  -2.618   0.329  1.00  0.00     0.022 C 
ATOM     21  C   UNL     1      -1.272  -3.829  -0.328  1.00  0.00     0.121 C 
ATOM     22  C   UNL     1      -1.966  -3.072   1.756  1.00  0.00     0.035 C 
ATOM     23  O   UNL     1      -1.880  -4.953   0.252  1.00  0.00    -0.378 OA
ATOM     24  C   UNL     1      -2.166  -4.582   1.590  1.00  0.00     0.161 C 
ENDBRANCH  14  16
ENDBRANCH   5  14
TORSDOF 4
