REMARK SMILES Cc1c[nH]c2ncc(C(=O)N[C@H]3[C@@H]4CN(C(=O)c5ccc6nc(N)n(C)c6c5)C[C@@H]43)cc12
REMARK SMILES IDX 12 1 13 2 14 3 15 4 29 5 30 6 11 7 9 8 10 9 8 11 2 12 3 13
REMARK SMILES IDX 32 14 4 15 31 16 5 17 6 18 7 19 1 20 16 22 17 23 18 24 19 25
REMARK SMILES IDX 28 26 20 27 27 28 21 29 25 30 22 31 23 32 26 33 24 34
REMARK H PARENT 11 10 4 21 24 35 24 36
ROOT
ATOM      1  C   UNL     1      -0.415  -1.247   0.690  1.00  0.00     0.093 C 
ATOM      2  C   UNL     1      -1.330  -2.231  -0.026  1.00  0.00     0.038 C 
ATOM      3  C   UNL     1      -0.662  -3.145  -1.043  1.00  0.00     0.126 C 
ATOM      4  N   UNL     1      -0.121  -2.279  -2.078  1.00  0.00    -0.338 N 
ATOM      5  C   UNL     1      -0.427  -0.872  -1.857  1.00  0.00     0.126 C 
ATOM      6  C   UNL     1      -1.190  -0.806  -0.543  1.00  0.00     0.038 C 
ENDROOT
BRANCH   1   7
ATOM      7  N   UNL     1      -0.983  -0.757   1.942  1.00  0.00    -0.349 N 
ATOM      8  C   UNL     1      -0.927  -1.544   3.141  1.00  0.00     0.253 C 
ATOM      9  O   UNL     1      -0.296  -2.636   3.139  1.00  0.00    -0.269 OA
ATOM     10  H   UNL     1      -1.299   0.237   1.985  1.00  0.00     0.164 HD
BRANCH   8  11
ATOM     11  C   UNL     1      -1.585  -1.086   4.386  1.00  0.00     0.058 A 
ATOM     12  C   UNL     1      -4.304   1.024   5.861  1.00  0.00    -0.024 A 
ATOM     13  C   UNL     1      -4.420   0.992   7.250  1.00  0.00     0.088 A 
ATOM     14  C   UNL     1      -3.245   0.194   5.556  1.00  0.00     0.022 A 
ATOM     15  N   UNL     1      -3.468   0.192   7.785  1.00  0.00    -0.346 N 
ATOM     16  C   UNL     1      -2.679  -0.190   4.345  1.00  0.00     0.027 A 
ATOM     17  C   UNL     1      -2.769  -0.282   6.742  1.00  0.00     0.137 A 
ATOM     18  N   UNL     1      -1.730  -1.150   6.806  1.00  0.00    -0.238 NA
ATOM     19  C   UNL     1      -1.132  -1.560   5.648  1.00  0.00     0.127 A 
ATOM     20  C   UNL     1      -5.201   1.737   4.902  1.00  0.00     0.047 C 
ATOM     21  H   UNL     1      -3.321  -0.021   8.797  1.00  0.00     0.167 HD
ENDBRANCH   8  11
ENDBRANCH   1   7
BRANCH   4  22
ATOM     22  C   UNL     1       0.430  -2.793  -3.303  1.00  0.00     0.253 C 
ATOM     23  O   UNL     1       0.137  -3.962  -3.674  1.00  0.00    -0.269 OA
BRANCH  22  24
ATOM     24  C   UNL     1       1.332  -1.982  -4.145  1.00  0.00     0.042 A 
ATOM     25  C   UNL     1       1.197  -2.010  -5.557  1.00  0.00     0.016 A 
ATOM     26  C   UNL     1       2.362  -1.214  -3.555  1.00  0.00     0.042 A 
ATOM     27  C   UNL     1       2.054  -1.254  -6.376  1.00  0.00     0.031 A 
ATOM     28  C   UNL     1       3.198  -0.481  -4.400  1.00  0.00     0.070 A 
ATOM     29  C   UNL     1       3.043  -0.496  -5.757  1.00  0.00     0.091 A 
ATOM     30  N   UNL     1       4.230   0.323  -4.089  1.00  0.00    -0.314 N 
ATOM     31  N   UNL     1       3.948   0.305  -6.349  1.00  0.00    -0.213 NA
ATOM     32  C   UNL     1       4.649   0.794  -5.294  1.00  0.00     0.200 A 
ATOM     33  C   UNL     1       4.715   0.703  -2.763  1.00  0.00     0.153 C 
BRANCH  32  34
ATOM     34  N   UNL     1       5.706   1.742  -5.453  1.00  0.00    -0.369 N 
ATOM     35  H   UNL     1       5.982   2.060  -6.409  1.00  0.00     0.159 HD
ATOM     36  H   UNL     1       6.205   2.144  -4.630  1.00  0.00     0.159 HD
ENDBRANCH  32  34
ENDBRANCH  22  24
ENDBRANCH   4  22
TORSDOF 5
