REMARK SMILES CC[C@](C)(O)Cc1cn(Cc2cc(C(F)(F)F)ncc2F)nn1
REMARK SMILES IDX 7 1 8 2 9 3 22 4 23 5 6 6 3 7 4 8 2 9 1 10 5 11 10 13 11 14
REMARK SMILES IDX 12 15 20 16 13 17 19 18 18 19 21 20 14 21 15 22 16 23 17 24
REMARK H PARENT 5 12
ROOT
ATOM      1  C   UNL     1      -0.400  -0.799   0.439  1.00  0.00     0.086 A 
ATOM      2  C   UNL     1       0.653   0.004   0.059  1.00  0.00     0.135 A 
ATOM      3  N   UNL     1       1.057  -0.460  -1.135  1.00  0.00    -0.248 N 
ATOM      4  N   UNL     1       0.292  -1.486  -1.472  1.00  0.00    -0.067 NA
ATOM      5  N   UNL     1      -0.604  -1.722  -0.523  1.00  0.00    -0.135 NA
ENDROOT
BRANCH   1   6
ATOM      6  C   UNL     1      -1.182  -0.715   1.718  1.00  0.00     0.094 C 
BRANCH   6   7
ATOM      7  C   UNL     1      -0.492  -1.459   2.892  1.00  0.00     0.067 C 
ATOM      8  C   UNL     1      -0.443  -2.978   2.608  1.00  0.00     0.042 C 
BRANCH   7   9
ATOM      9  C   UNL     1      -1.234  -1.167   4.230  1.00  0.00     0.032 C 
ATOM     10  C   UNL     1      -2.712  -1.571   4.260  1.00  0.00     0.007 C 
ENDBRANCH   7   9
BRANCH   7  11
ATOM     11  O   UNL     1       0.825  -0.968   3.001  1.00  0.00    -0.390 OA
ATOM     12  H   UNL     1       1.276  -1.448   3.746  1.00  0.00     0.211 HD
ENDBRANCH   7  11
ENDBRANCH   6   7
ENDBRANCH   1   6
BRANCH   3  13
ATOM     13  C   UNL     1       2.109   0.098  -1.977  1.00  0.00     0.184 C 
BRANCH  13  14
ATOM     14  C   UNL     1       1.616   1.349  -2.654  1.00  0.00     0.013 A 
ATOM     15  C   UNL     1       1.925   2.609  -2.119  1.00  0.00     0.042 A 
ATOM     16  C   UNL     1       0.794   1.270  -3.788  1.00  0.00     0.146 A 
ATOM     17  C   UNL     1       1.431   3.766  -2.738  1.00  0.00     0.144 A 
ATOM     18  C   UNL     1       0.319   2.445  -4.374  1.00  0.00     0.151 A 
ATOM     19  N   UNL     1       0.645   3.653  -3.844  1.00  0.00    -0.249 NA
ATOM     20  F   UNL     1       0.449   0.070  -4.319  1.00  0.00    -0.205 F 
BRANCH  17  21
ATOM     21  C   UNL     1       1.757   5.121  -2.183  1.00  0.00     0.433 C 
ATOM     22  F   UNL     1       1.261   5.227  -0.896  1.00  0.00    -0.165 F 
ATOM     23  F   UNL     1       3.129   5.296  -2.158  1.00  0.00    -0.165 F 
ATOM     24  F   UNL     1       1.193   6.115  -2.963  1.00  0.00    -0.165 F 
ENDBRANCH  17  21
ENDBRANCH  13  14
ENDBRANCH   3  13
TORSDOF 7
