REMARK SMILES C[C@@H](NCc1nc2sc3c(c2c(=O)[nH]1)CCC3)c1cc(Br)cs1
REMARK SMILES IDX 3 1 2 3 1 4 18 5 19 6 23 7 20 8 22 9 21 10 4 11 5 12 6 13
REMARK SMILES IDX 14 14 7 15 12 16 8 17 11 18 13 19 9 20 10 21 17 22 15 23
REMARK SMILES IDX 16 24
REMARK H PARENT 3 2 14 25
ROOT
ATOM      1  N   UNL     1       0.234  -3.785   0.002  1.00  0.00    -0.302 NA
ATOM      2  H   UNL     1       0.774  -3.486   0.849  1.00  0.00     0.123 HD
ENDROOT
BRANCH   1   3
ATOM      3  C   UNL     1      -1.157  -3.304   0.129  1.00  0.00     0.091 C 
ATOM      4  C   UNL     1      -1.764  -3.808   1.441  1.00  0.00     0.030 C 
BRANCH   3   5
ATOM      5  C   UNL     1      -2.000  -3.777  -1.026  1.00  0.00     0.022 A 
ATOM      6  C   UNL     1      -2.726  -2.961  -1.885  1.00  0.00     0.032 A 
ATOM      7  S   UNL     1      -2.202  -5.378  -1.510  1.00  0.00    -0.146 S 
ATOM      8  C   UNL     1      -3.401  -3.676  -2.880  1.00  0.00     0.029 A 
ATOM      9  C   UNL     1      -3.214  -5.050  -2.813  1.00  0.00     0.080 A 
ATOM     10  Br  UNL     1      -4.476  -2.837  -4.213  1.00  0.00    -0.050 Br
ENDBRANCH   3   5
ENDBRANCH   1   3
BRANCH   1  11
ATOM     11  C   UNL     1       0.931  -3.267  -1.189  1.00  0.00     0.157 C 
BRANCH  11  12
ATOM     12  C   UNL     1       1.072  -1.769  -1.163  1.00  0.00     0.124 A 
ATOM     13  N   UNL     1       0.250  -1.007  -1.942  1.00  0.00    -0.222 NA
ATOM     14  N   UNL     1       1.984  -1.172  -0.329  1.00  0.00    -0.309 N 
ATOM     15  C   UNL     1       0.353   0.341  -1.888  1.00  0.00     0.131 A 
ATOM     16  C   UNL     1       2.101   0.188  -0.262  1.00  0.00     0.259 A 
ATOM     17  S   UNL     1      -0.569   1.467  -2.759  1.00  0.00    -0.120 S 
ATOM     18  C   UNL     1       1.267   0.969  -1.059  1.00  0.00     0.080 A 
ATOM     19  O   UNL     1       2.945   0.718   0.509  1.00  0.00    -0.269 OA
ATOM     20  C   UNL     1       0.242   2.767  -2.045  1.00  0.00     0.011 A 
ATOM     21  C   UNL     1       1.183   2.354  -1.169  1.00  0.00    -0.019 A 
ATOM     22  C   UNL     1       0.135   4.230  -2.160  1.00  0.00     0.047 C 
ATOM     23  C   UNL     1       1.891   3.479  -0.526  1.00  0.00     0.038 C 
ATOM     24  C   UNL     1       1.221   4.723  -1.169  1.00  0.00     0.010 C 
ATOM     25  H   UNL     1       2.602  -1.766   0.270  1.00  0.00     0.171 HD
ENDBRANCH  11  12
ENDBRANCH   1  11
TORSDOF 4
