REMARK SMILES C[C@@H](NCc1nc2sc3c(c2c(=O)[nH]1)CCC3)c1cc(Br)cs1
REMARK SMILES IDX 3 1 2 3 1 4 18 5 19 6 23 7 20 8 22 9 21 10 4 11 5 12 6 13
REMARK SMILES IDX 14 14 7 15 12 16 8 17 11 18 13 19 9 20 10 21 17 22 15 23
REMARK SMILES IDX 16 24
REMARK H PARENT 3 2 14 25
ROOT
ATOM      1  N   UNL     1      -1.578  -1.838  -1.472  1.00  0.00    -0.302 NA
ATOM      2  H   UNL     1      -2.196  -2.625  -1.779  1.00  0.00     0.123 HD
ENDROOT
BRANCH   1   3
ATOM      3  C   UNL     1      -0.174  -2.163  -1.796  1.00  0.00     0.091 C 
ATOM      4  C   UNL     1       0.027  -2.098  -3.310  1.00  0.00     0.030 C 
BRANCH   3   5
ATOM      5  C   UNL     1       0.224  -3.522  -1.274  1.00  0.00     0.022 A 
ATOM      6  C   UNL     1       1.228  -3.767  -0.345  1.00  0.00     0.032 A 
ATOM      7  S   UNL     1      -0.484  -4.993  -1.692  1.00  0.00    -0.146 S 
ATOM      8  C   UNL     1       1.367  -5.124  -0.030  1.00  0.00     0.029 A 
ATOM      9  C   UNL     1       0.479  -5.953  -0.702  1.00  0.00     0.080 A 
ATOM     10  Br  UNL     1       2.656  -5.774   1.216  1.00  0.00    -0.050 Br
ENDBRANCH   3   5
ENDBRANCH   1   3
BRANCH   1  11
ATOM     11  C   UNL     1      -1.795  -1.614  -0.035  1.00  0.00     0.157 C 
BRANCH  11  12
ATOM     12  C   UNL     1      -1.231  -0.289   0.387  1.00  0.00     0.124 A 
ATOM     13  N   UNL     1      -1.849   0.859  -0.020  1.00  0.00    -0.222 NA
ATOM     14  N   UNL     1      -0.083  -0.228   1.139  1.00  0.00    -0.309 N 
ATOM     15  C   UNL     1      -1.321   2.053   0.338  1.00  0.00     0.131 A 
ATOM     16  C   UNL     1       0.463   0.969   1.506  1.00  0.00     0.259 A 
ATOM     17  S   UNL     1      -1.922   3.589  -0.058  1.00  0.00    -0.120 S 
ATOM     18  C   UNL     1      -0.168   2.142   1.099  1.00  0.00     0.080 A 
ATOM     19  O   UNL     1       1.517   1.004   2.196  1.00  0.00    -0.269 OA
ATOM     20  C   UNL     1      -0.667   4.357   0.775  1.00  0.00     0.011 A 
ATOM     21  C   UNL     1       0.183   3.469   1.334  1.00  0.00    -0.019 A 
ATOM     22  C   UNL     1      -0.300   5.762   1.010  1.00  0.00     0.047 C 
ATOM     23  C   UNL     1       1.291   4.123   2.058  1.00  0.00     0.038 C 
ATOM     24  C   UNL     1       0.990   5.633   1.860  1.00  0.00     0.010 C 
ATOM     25  H   UNL     1       0.390  -1.112   1.435  1.00  0.00     0.171 HD
ENDBRANCH  11  12
ENDBRANCH   1  11
TORSDOF 4
