REMARK SMILES O=c1ccc(-c2nnco2)cn1Cc1ncnn1-c1ccccc1
REMARK SMILES IDX 13 1 12 2 1 3 2 4 3 5 4 6 11 7 5 8 6 9 7 10 10 11 8 12 9 13
REMARK SMILES IDX 14 14 15 15 18 16 16 17 17 18 19 19 20 20 24 21 21 22 23 23
REMARK SMILES IDX 22 24
REMARK H PARENT
ROOT
ATOM      1  C   UNL     1      -0.546   0.320   2.801  1.00  0.00     0.202 C 
ENDROOT
BRANCH   1   2
ATOM      2  N   UNL     1      -0.366  -0.733   1.786  1.00  0.00    -0.307 N 
ATOM      3  O   UNL     1       1.194  -1.822   3.060  1.00  0.00    -0.269 OA
ATOM      4  C   UNL     1       0.540  -1.746   1.984  1.00  0.00     0.250 A 
ATOM      5  C   UNL     1       0.753  -2.706   0.993  1.00  0.00     0.072 A 
ATOM      6  C   UNL     1       0.047  -2.630  -0.205  1.00  0.00     0.021 A 
ATOM      7  C   UNL     1      -1.088  -0.672   0.624  1.00  0.00     0.103 A 
ATOM      8  C   UNL     1      -0.884  -1.606  -0.403  1.00  0.00     0.055 A 
BRANCH   8   9
ATOM      9  C   UNL     1      -1.619  -1.500  -1.678  1.00  0.00     0.248 A 
ATOM     10  N   UNL     1      -2.518  -0.538  -1.964  1.00  0.00    -0.108 NA
ATOM     11  O   UNL     1      -1.478  -2.326  -2.688  1.00  0.00    -0.423 OA
ATOM     12  N   UNL     1      -2.945  -0.781  -3.193  1.00  0.00    -0.116 NA
ATOM     13  C   UNL     1      -2.293  -1.881  -3.614  1.00  0.00     0.333 A 
ENDBRANCH   8   9
ENDBRANCH   1   2
BRANCH   1  14
ATOM     14  C   UNL     1       0.667   1.208   2.864  1.00  0.00     0.152 A 
ATOM     15  N   UNL     1       1.493   1.247   3.929  1.00  0.00    -0.218 NA
ATOM     16  N   UNL     1       1.150   1.948   1.845  1.00  0.00    -0.216 N 
ATOM     17  C   UNL     1       2.489   2.051   3.495  1.00  0.00     0.246 A 
ATOM     18  N   UNL     1       2.299   2.473   2.229  1.00  0.00    -0.154 NA
BRANCH  16  19
ATOM     19  C   UNL     1       0.595   2.118   0.536  1.00  0.00     0.067 A 
ATOM     20  C   UNL     1       1.332   1.730  -0.592  1.00  0.00     0.028 A 
ATOM     21  C   UNL     1      -0.684   2.671   0.371  1.00  0.00     0.028 A 
ATOM     22  C   UNL     1       0.780   1.860  -1.871  1.00  0.00     0.002 A 
ATOM     23  C   UNL     1      -1.232   2.804  -0.909  1.00  0.00     0.002 A 
ATOM     24  C   UNL     1      -0.502   2.393  -2.029  1.00  0.00     0.000 A 
ENDBRANCH  16  19
ENDBRANCH   1  14
TORSDOF 4
