REMARK SMILES Cc1cccc(Oc2ccc(C(=O)Nc3cccc([C@@H]4CCC(=O)N4)c3)nc2)c1
REMARK SMILES IDX 8 1 9 2 10 3 11 4 27 5 28 6 7 7 6 8 2 9 3 10 29 11 4 12 5 13
REMARK SMILES IDX 1 14 12 15 13 16 14 17 15 19 16 20 26 21 17 22 19 23 18 24
REMARK SMILES IDX 20 25 21 26 25 27 22 28 23 29 24 30
REMARK H PARENT 14 18 25 31
ROOT
ATOM      1  C   UNL     1      -0.411   1.986   1.824  1.00  0.00     0.145 A 
ATOM      2  C   UNL     1       0.252   0.794   2.151  1.00  0.00     0.051 A 
ATOM      3  C   UNL     1       0.203  -0.297   1.280  1.00  0.00     0.038 A 
ATOM      4  C   UNL     1      -0.507  -0.188   0.074  1.00  0.00     0.128 A 
ATOM      5  N   UNL     1      -1.120   0.988  -0.230  1.00  0.00    -0.247 NA
ATOM      6  C   UNL     1      -1.081   2.064   0.600  1.00  0.00     0.159 A 
ENDROOT
BRANCH   1   7
ATOM      7  O   UNL     1      -0.388   3.114   2.658  1.00  0.00    -0.456 OA
BRANCH   7   8
ATOM      8  C   UNL     1      -0.326   3.094   4.061  1.00  0.00     0.127 A 
ATOM      9  C   UNL     1      -0.779   2.055   6.222  1.00  0.00    -0.047 A 
ATOM     10  C   UNL     1      -0.214   3.166   6.869  1.00  0.00     0.003 A 
ATOM     11  C   UNL     1      -0.856   2.035   4.819  1.00  0.00     0.050 A 
ATOM     12  C   UNL     1       0.288   4.232   6.119  1.00  0.00     0.004 A 
ATOM     13  C   UNL     1       0.231   4.195   4.722  1.00  0.00     0.047 A 
ATOM     14  C   UNL     1      -1.369   0.933   7.022  1.00  0.00     0.044 C 
ENDBRANCH   7   8
ENDBRANCH   1   7
BRANCH   4  15
ATOM     15  C   UNL     1      -0.588  -1.321  -0.873  1.00  0.00     0.274 C 
ATOM     16  O   UNL     1       0.089  -2.364  -0.660  1.00  0.00    -0.267 OA
ATOM     17  N   UNL     1      -1.467  -1.251  -2.010  1.00  0.00    -0.321 N 
ATOM     18  H   UNL     1      -2.251  -0.559  -1.984  1.00  0.00     0.170 HD
BRANCH  17  19
ATOM     19  C   UNL     1      -1.401  -2.139  -3.140  1.00  0.00     0.041 A 
ATOM     20  C   UNL     1      -2.572  -2.424  -3.856  1.00  0.00     0.026 A 
ATOM     21  C   UNL     1      -0.177  -2.672  -3.588  1.00  0.00     0.032 A 
ATOM     22  C   UNL     1      -2.533  -3.257  -4.977  1.00  0.00     0.003 A 
ATOM     23  C   UNL     1      -0.129  -3.500  -4.725  1.00  0.00    -0.024 A 
ATOM     24  C   UNL     1      -1.320  -3.800  -5.405  1.00  0.00     0.006 A 
BRANCH  23  25
ATOM     25  C   UNL     1       1.179  -4.099  -5.195  1.00  0.00     0.113 C 
ATOM     26  C   UNL     1       1.654  -5.254  -4.280  1.00  0.00     0.040 C 
ATOM     27  N   UNL     1       2.244  -3.113  -5.175  1.00  0.00    -0.349 N 
ATOM     28  C   UNL     1       3.151  -5.026  -4.023  1.00  0.00     0.102 C 
ATOM     29  C   UNL     1       3.373  -3.656  -4.526  1.00  0.00     0.220 C 
ATOM     30  O   UNL     1       4.462  -3.034  -4.418  1.00  0.00    -0.275 OA
ATOM     31  H   UNL     1       2.233  -2.205  -5.689  1.00  0.00     0.164 HD
ENDBRANCH  23  25
ENDBRANCH  17  19
ENDBRANCH   4  15
TORSDOF 5
