REMARK SMILES C[C@@H](Nc1nc2ccccc2n2nnnc12)c1cnccn1
REMARK SMILES IDX 1 1 2 2 3 3 4 5 5 6 16 7 6 8 15 9 12 10 7 11 11 12 14 13
REMARK SMILES IDX 13 14 8 15 10 16 9 17 17 18 18 19 22 20 19 21 21 22 20 23
REMARK H PARENT 3 4
ROOT
ATOM      1  C   UNL     1      -3.755  -1.138   0.885  1.00  0.00     0.038 C 
ATOM      2  C   UNL     1      -2.318  -0.866   0.431  1.00  0.00     0.128 C 
ENDROOT
BRANCH   2   3
ATOM      3  N   UNL     1      -1.867   0.447   0.905  1.00  0.00    -0.359 N 
ATOM      4  H   UNL     1      -2.446   0.968   1.604  1.00  0.00     0.162 HD
BRANCH   3   5
ATOM      5  C   UNL     1      -0.648   1.043   0.438  1.00  0.00     0.174 A 
ATOM      6  N   UNL     1       0.140   0.409  -0.485  1.00  0.00    -0.225 NA
ATOM      7  C   UNL     1      -0.214   2.283   0.910  1.00  0.00     0.222 A 
ATOM      8  C   UNL     1       1.311   0.958  -0.935  1.00  0.00     0.091 A 
ATOM      9  N   UNL     1      -0.801   3.092   1.809  1.00  0.00    -0.105 NA
ATOM     10  N   UNL     1       0.923   2.819   0.472  1.00  0.00    -0.188 N 
ATOM     11  C   UNL     1       2.099   0.288  -1.876  1.00  0.00     0.031 A 
ATOM     12  C   UNL     1       1.728   2.218  -0.440  1.00  0.00     0.095 A 
ATOM     13  N   UNL     1       0.024   4.135   1.896  1.00  0.00    -0.023 NA
ATOM     14  N   UNL     1       1.070   3.975   1.090  1.00  0.00    -0.039 NA
ATOM     15  C   UNL     1       3.294   0.866  -2.323  1.00  0.00     0.002 A 
ATOM     16  C   UNL     1       2.924   2.793  -0.890  1.00  0.00     0.031 A 
ATOM     17  C   UNL     1       3.704   2.113  -1.832  1.00  0.00     0.002 A 
ENDBRANCH   3   5
ENDBRANCH   2   3
BRANCH   2  18
ATOM     18  C   UNL     1      -1.403  -1.946   0.949  1.00  0.00     0.081 A 
ATOM     19  C   UNL     1      -0.904  -2.942   0.097  1.00  0.00     0.137 A 
ATOM     20  N   UNL     1      -1.065  -1.977   2.268  1.00  0.00    -0.256 NA
ATOM     21  N   UNL     1      -0.087  -3.905   0.599  1.00  0.00    -0.261 NA
ATOM     22  C   UNL     1      -0.249  -2.941   2.768  1.00  0.00     0.131 A 
ATOM     23  C   UNL     1       0.252  -3.926   1.915  1.00  0.00     0.131 A 
ENDBRANCH   2  18
TORSDOF 3
