REMARK SMILES N#Cc1cc(N(CC[C@H]2C[C@H](F)C2)Cc2ccns2)ncn1
REMARK SMILES IDX 7 1 6 2 5 3 1 4 2 5 3 6 4 7 22 8 21 9 20 10 14 11 15 12
REMARK SMILES IDX 16 13 19 14 17 15 18 16 8 17 9 18 10 19 13 20 11 21 12 22
REMARK H PARENT
ROOT
ATOM      1  C   UNL     1      -0.007  -1.074   0.142  1.00  0.00     0.119 C 
ENDROOT
BRANCH   1   2
ATOM      2  N   UNL     1      -1.125  -0.608  -0.692  1.00  0.00    -0.351 N 
BRANCH   2   3
ATOM      3  C   UNL     1      -1.045   0.698  -1.316  1.00  0.00     0.133 A 
ATOM      4  N   UNL     1      -4.129   3.972  -3.126  1.00  0.00    -0.191 NA
ATOM      5  C   UNL     1      -3.201   3.380  -2.771  1.00  0.00     0.120 C 
ATOM      6  C   UNL     1      -2.048   2.643  -2.330  1.00  0.00     0.145 A 
ATOM      7  C   UNL     1      -2.196   1.391  -1.729  1.00  0.00     0.087 A 
ATOM      8  N   UNL     1      -0.809   3.173  -2.495  1.00  0.00    -0.225 NA
ATOM      9  C   UNL     1       0.296   2.502  -2.083  1.00  0.00     0.225 A 
ATOM     10  N   UNL     1       0.172   1.281  -1.502  1.00  0.00    -0.219 NA
ENDBRANCH   2   3
BRANCH   2  11
ATOM     11  C   UNL     1      -2.297  -1.483  -0.866  1.00  0.00     0.166 C 
BRANCH  11  12
ATOM     12  C   UNL     1      -2.566  -1.752  -2.316  1.00  0.00     0.045 A 
ATOM     13  C   UNL     1      -1.685  -2.249  -3.268  1.00  0.00     0.039 A 
ATOM     14  S   UNL     1      -4.023  -1.588  -3.106  1.00  0.00    -0.040 S 
ATOM     15  C   UNL     1      -2.282  -2.425  -4.534  1.00  0.00     0.126 A 
ATOM     16  N   UNL     1      -3.598  -2.102  -4.628  1.00  0.00    -0.201 NA
ENDBRANCH  11  12
ENDBRANCH   2  11
ENDBRANCH   1   2
BRANCH   1  17
ATOM     17  C   UNL     1       1.026  -1.833  -0.715  1.00  0.00     0.025 C 
BRANCH  17  18
ATOM     18  C   UNL     1       2.432  -2.007  -0.094  1.00  0.00    -0.004 C 
ATOM     19  C   UNL     1       3.171  -0.705   0.214  1.00  0.00     0.041 C 
ATOM     20  C   UNL     1       2.490  -2.394   1.385  1.00  0.00     0.041 C 
ATOM     21  C   UNL     1       3.206  -1.083   1.690  1.00  0.00     0.167 C 
ATOM     22  F   UNL     1       4.498  -1.289   2.144  1.00  0.00    -0.247 F 
ENDBRANCH  17  18
ENDBRANCH   1  17
TORSDOF 6
