REMARK SMILES O=C(Nc1ccc(OC(F)F)cc1)c1ccc(Nc2ncccn2)cc1
REMARK SMILES IDX 4 1 5 2 6 3 7 4 12 5 13 6 3 7 1 8 2 9 14 11 15 12 26 13
REMARK SMILES IDX 16 14 25 15 17 16 18 17 19 19 20 20 24 21 21 22 23 23 22 24
REMARK SMILES IDX 8 25 9 26 10 27 11 28
REMARK H PARENT 3 10 18 18
ROOT
ATOM      1  C   UNL     1      -1.897  -0.890   2.113  1.00  0.00     0.041 A 
ATOM      2  C   UNL     1      -2.800  -1.937   1.879  1.00  0.00     0.030 A 
ATOM      3  C   UNL     1      -3.482  -2.537   2.941  1.00  0.00     0.049 A 
ATOM      4  C   UNL     1      -3.263  -2.114   4.257  1.00  0.00     0.126 A 
ATOM      5  C   UNL     1      -2.342  -1.077   4.499  1.00  0.00     0.049 A 
ATOM      6  C   UNL     1      -1.661  -0.476   3.436  1.00  0.00     0.030 A 
ENDROOT
BRANCH   1   7
ATOM      7  N   UNL     1      -1.191  -0.303   1.006  1.00  0.00    -0.322 N 
ATOM      8  O   UNL     1      -1.310   1.918   1.719  1.00  0.00    -0.269 OA
ATOM      9  C   UNL     1      -0.752   1.066   0.974  1.00  0.00     0.255 C 
ATOM     10  H   UNL     1      -1.094  -0.870   0.134  1.00  0.00     0.170 HD
BRANCH   9  11
ATOM     11  C   UNL     1       0.313   1.501   0.038  1.00  0.00     0.040 A 
ATOM     12  C   UNL     1       1.208   0.571  -0.521  1.00  0.00     0.016 A 
ATOM     13  C   UNL     1       0.462   2.862  -0.282  1.00  0.00     0.016 A 
ATOM     14  C   UNL     1       2.212   0.991  -1.398  1.00  0.00     0.027 A 
ATOM     15  C   UNL     1       1.466   3.280  -1.160  1.00  0.00     0.027 A 
ATOM     16  C   UNL     1       2.335   2.348  -1.743  1.00  0.00     0.041 A 
BRANCH  16  17
ATOM     17  N   UNL     1       3.374   2.806  -2.623  1.00  0.00    -0.324 N 
ATOM     18  H   UNL     1       3.759   3.767  -2.474  1.00  0.00     0.170 HD
BRANCH  17  19
ATOM     19  C   UNL     1       3.844   2.076  -3.766  1.00  0.00     0.227 A 
ATOM     20  N   UNL     1       3.148   1.010  -4.249  1.00  0.00    -0.221 NA
ATOM     21  N   UNL     1       4.972   2.487  -4.407  1.00  0.00    -0.221 NA
ATOM     22  C   UNL     1       3.572   0.334  -5.347  1.00  0.00     0.117 A 
ATOM     23  C   UNL     1       5.429   1.838  -5.509  1.00  0.00     0.117 A 
ATOM     24  C   UNL     1       4.733   0.736  -6.005  1.00  0.00     0.040 A 
ENDBRANCH  17  19
ENDBRANCH  16  17
ENDBRANCH   9  11
ENDBRANCH   1   7
BRANCH   4  25
ATOM     25  O   UNL     1      -3.975  -2.748   5.286  1.00  0.00    -0.435 OA
BRANCH  25  26
ATOM     26  C   UNL     1      -3.840  -2.447   6.672  1.00  0.00     0.542 C 
ATOM     27  F   UNL     1      -2.565  -2.770   7.103  1.00  0.00    -0.167 F 
ATOM     28  F   UNL     1      -4.757  -3.191   7.388  1.00  0.00    -0.167 F 
ENDBRANCH  25  26
ENDBRANCH   4  25
TORSDOF 6
