REMARK SMILES O=C(N[C@H](c1cccnc1)C1CC1)c1cc(-c2ccccc2)[nH]n1
REMARK SMILES IDX 1 1 2 2 3 3 14 5 15 6 24 7 16 8 23 9 17 11 18 12 22 13 19 14
REMARK SMILES IDX 21 15 20 16 4 17 5 18 6 19 10 20 7 21 9 22 8 23 11 24 12 25
REMARK SMILES IDX 13 26
REMARK H PARENT 3 4 23 10
ROOT
ATOM      1  O   UNL     1      -1.470   0.066  -1.909  1.00  0.00    -0.267 OA
ATOM      2  C   UNL     1      -0.799  -0.126  -0.859  1.00  0.00     0.272 C 
ATOM      3  N   UNL     1      -1.130   0.591   0.342  1.00  0.00    -0.344 N 
ATOM      4  H   UNL     1      -0.603   0.389   1.220  1.00  0.00     0.164 HD
ENDROOT
BRANCH   2   5
ATOM      5  C   UNL     1       0.316  -1.089  -0.894  1.00  0.00     0.150 A 
ATOM      6  C   UNL     1       1.180  -1.404   0.142  1.00  0.00     0.064 A 
ATOM      7  N   UNL     1       0.642  -1.801  -1.990  1.00  0.00    -0.170 NA
ATOM      8  C   UNL     1       2.035  -2.348  -0.401  1.00  0.00     0.066 A 
ATOM      9  N   UNL     1       1.681  -2.562  -1.684  1.00  0.00    -0.277 N 
ATOM     10  H   UNL     1       2.144  -3.200  -2.366  1.00  0.00     0.190 HD
BRANCH   8  11
ATOM     11  C   UNL     1       3.162  -3.021   0.293  1.00  0.00    -0.000 A 
ATOM     12  C   UNL     1       3.694  -4.226  -0.204  1.00  0.00     0.010 A 
ATOM     13  C   UNL     1       3.717  -2.466   1.464  1.00  0.00     0.010 A 
ATOM     14  C   UNL     1       4.755  -4.857   0.453  1.00  0.00     0.001 A 
ATOM     15  C   UNL     1       4.778  -3.102   2.115  1.00  0.00     0.001 A 
ATOM     16  C   UNL     1       5.297  -4.296   1.611  1.00  0.00     0.000 A 
ENDBRANCH   8  11
ENDBRANCH   2   5
BRANCH   3  17
ATOM     17  C   UNL     1      -2.197   1.598   0.374  1.00  0.00     0.117 C 
BRANCH  17  18
ATOM     18  C   UNL     1      -1.780   2.825  -0.405  1.00  0.00    -0.007 A 
ATOM     19  C   UNL     1      -2.655   3.410  -1.334  1.00  0.00     0.009 A 
ATOM     20  C   UNL     1      -0.530   3.430  -0.189  1.00  0.00     0.116 A 
ATOM     21  C   UNL     1      -2.269   4.554  -2.034  1.00  0.00     0.020 A 
ATOM     22  N   UNL     1      -0.178   4.546  -0.883  1.00  0.00    -0.264 NA
ATOM     23  C   UNL     1      -1.013   5.113  -1.794  1.00  0.00     0.111 A 
ENDBRANCH  17  18
BRANCH  17  24
ATOM     24  C   UNL     1      -2.499   2.002   1.829  1.00  0.00     0.016 C 
ATOM     25  C   UNL     1      -3.476   1.098   2.566  1.00  0.00     0.006 C 
ATOM     26  C   UNL     1      -3.920   2.475   2.098  1.00  0.00     0.006 C 
ENDBRANCH  17  24
ENDBRANCH   3  17
TORSDOF 5
