REMARK SMILES COc1ccc(-c2nc(CCNC(=O)c3cncc(F)c3)co2)cc1
REMARK SMILES IDX 10 1 9 2 7 3 8 4 23 5 22 6 6 7 3 8 4 9 25 10 5 11 24 12 2 13
REMARK SMILES IDX 1 14 11 15 12 16 13 17 14 18 15 20 16 21 21 22 17 23 19 24
REMARK SMILES IDX 18 25 20 26
REMARK H PARENT 12 19
ROOT
ATOM      1  C   UNL     1       3.241  -1.881  -1.734  1.00  0.00     0.081 C 
ENDROOT
BRANCH   1   2
ATOM      2  C   UNL     1       2.599  -0.584  -1.346  1.00  0.00     0.081 A 
ATOM      3  C   UNL     1       1.299   0.820  -0.449  1.00  0.00     0.226 A 
ATOM      4  N   UNL     1       1.697  -0.467  -0.354  1.00  0.00    -0.214 NA
ATOM      5  O   UNL     1       1.900   1.463  -1.428  1.00  0.00    -0.444 OA
ATOM      6  C   UNL     1       2.710   0.615  -2.012  1.00  0.00     0.221 A 
BRANCH   3   7
ATOM      7  C   UNL     1       0.279   1.425   0.430  1.00  0.00     0.037 A 
ATOM      8  C   UNL     1      -1.706   2.574   2.070  1.00  0.00     0.118 A 
ATOM      9  C   UNL     1      -1.065   3.339   1.089  1.00  0.00     0.047 A 
ATOM     10  C   UNL     1      -1.345   1.223   2.230  1.00  0.00     0.047 A 
ATOM     11  C   UNL     1      -0.082   2.772   0.273  1.00  0.00     0.017 A 
ATOM     12  C   UNL     1      -0.359   0.656   1.418  1.00  0.00     0.017 A 
BRANCH   8  13
ATOM     13  O   UNL     1      -2.689   3.189   2.859  1.00  0.00    -0.497 OA
ATOM     14  C   UNL     1      -3.424   2.530   3.885  1.00  0.00     0.278 C 
ENDBRANCH   8  13
ENDBRANCH   3   7
ENDBRANCH   1   2
BRANCH   1  15
ATOM     15  C   UNL     1       2.430  -2.608  -2.817  1.00  0.00     0.122 C 
BRANCH  15  16
ATOM     16  N   UNL     1       1.015  -2.708  -2.454  1.00  0.00    -0.352 N 
ATOM     17  C   UNL     1       0.565  -3.440  -1.303  1.00  0.00     0.252 C 
ATOM     18  O   UNL     1       1.285  -4.366  -0.839  1.00  0.00    -0.269 OA
ATOM     19  H   UNL     1       0.320  -2.217  -3.058  1.00  0.00     0.163 HD
BRANCH  17  20
ATOM     20  C   UNL     1      -0.724  -3.114  -0.644  1.00  0.00     0.061 A 
ATOM     21  C   UNL     1      -1.379  -1.889  -0.875  1.00  0.00     0.125 A 
ATOM     22  C   UNL     1      -1.301  -4.011   0.272  1.00  0.00     0.056 A 
ATOM     23  N   UNL     1      -2.539  -1.597  -0.229  1.00  0.00    -0.261 NA
ATOM     24  C   UNL     1      -2.496  -3.687   0.918  1.00  0.00     0.142 A 
ATOM     25  C   UNL     1      -3.107  -2.462   0.651  1.00  0.00     0.150 A 
ATOM     26  F   UNL     1      -3.055  -4.553   1.798  1.00  0.00    -0.205 F 
ENDBRANCH  17  20
ENDBRANCH  15  16
ENDBRANCH   1  15
TORSDOF 6
