REMARK SMILES Cc1cccc(Oc2ccc(C(=O)Nc3cccc([C@H]4CCC(=O)N4)c3)nc2)c1
REMARK SMILES IDX 8 1 9 2 10 3 11 4 27 5 28 6 7 7 6 8 2 9 3 10 29 11 4 12 5 13
REMARK SMILES IDX 1 14 12 15 13 16 14 17 15 19 16 20 26 21 17 22 19 23 18 24
REMARK SMILES IDX 20 25 21 26 25 27 22 28 23 29 24 30
REMARK H PARENT 14 18 25 31
ROOT
ATOM      1  C   UNL     1       0.089   3.026  -1.417  1.00  0.00     0.145 A 
ATOM      2  C   UNL     1       1.378   2.621  -1.064  1.00  0.00     0.051 A 
ATOM      3  C   UNL     1       1.596   1.348  -0.535  1.00  0.00     0.038 A 
ATOM      4  C   UNL     1       0.506   0.482  -0.345  1.00  0.00     0.128 A 
ATOM      5  N   UNL     1      -0.745   0.905  -0.678  1.00  0.00    -0.247 NA
ATOM      6  C   UNL     1      -0.978   2.139  -1.199  1.00  0.00     0.159 A 
ENDROOT
BRANCH   1   7
ATOM      7  O   UNL     1      -0.103   4.317  -1.930  1.00  0.00    -0.456 OA
BRANCH   7   8
ATOM      8  C   UNL     1      -1.119   4.696  -2.820  1.00  0.00     0.127 A 
ATOM      9  C   UNL     1      -2.609   6.436  -3.649  1.00  0.00    -0.047 A 
ATOM     10  C   UNL     1      -3.129   5.534  -4.590  1.00  0.00     0.003 A 
ATOM     11  C   UNL     1      -1.609   6.007  -2.762  1.00  0.00     0.050 A 
ATOM     12  C   UNL     1      -2.629   4.232  -4.666  1.00  0.00     0.004 A 
ATOM     13  C   UNL     1      -1.623   3.814  -3.792  1.00  0.00     0.047 A 
ATOM     14  C   UNL     1      -3.162   7.826  -3.543  1.00  0.00     0.044 C 
ENDBRANCH   7   8
ENDBRANCH   1   7
BRANCH   4  15
ATOM     15  C   UNL     1       0.698  -0.876   0.209  1.00  0.00     0.274 C 
ATOM     16  O   UNL     1       1.859  -1.270   0.508  1.00  0.00    -0.267 OA
ATOM     17  N   UNL     1      -0.434  -1.732   0.442  1.00  0.00    -0.321 N 
ATOM     18  H   UNL     1      -1.382  -1.294   0.502  1.00  0.00     0.170 HD
BRANCH  17  19
ATOM     19  C   UNL     1      -0.330  -3.137   0.728  1.00  0.00     0.041 A 
ATOM     20  C   UNL     1      -1.263  -3.735   1.587  1.00  0.00     0.026 A 
ATOM     21  C   UNL     1       0.657  -3.936   0.122  1.00  0.00     0.032 A 
ATOM     22  C   UNL     1      -1.188  -5.100   1.871  1.00  0.00     0.003 A 
ATOM     23  C   UNL     1       0.731  -5.313   0.395  1.00  0.00    -0.024 A 
ATOM     24  C   UNL     1      -0.193  -5.885   1.288  1.00  0.00     0.006 A 
BRANCH  23  25
ATOM     25  C   UNL     1       1.818  -6.156  -0.237  1.00  0.00     0.113 C 
ATOM     26  C   UNL     1       2.870  -6.621   0.802  1.00  0.00     0.040 C 
ATOM     27  N   UNL     1       1.257  -7.367  -0.808  1.00  0.00    -0.349 N 
ATOM     28  C   UNL     1       2.816  -8.157   0.852  1.00  0.00     0.102 C 
ATOM     29  C   UNL     1       1.830  -8.498  -0.192  1.00  0.00     0.220 C 
ATOM     30  O   UNL     1       1.516  -9.676  -0.505  1.00  0.00    -0.275 OA
ATOM     31  H   UNL     1       0.544  -7.398  -1.571  1.00  0.00     0.164 HD
ENDBRANCH  23  25
ENDBRANCH  17  19
ENDBRANCH   4  15
TORSDOF 5
