REMARK SMILES O=C(NCC1CCOCC1)c1cnc(Nc2ccccc2)nc1C(F)(F)F
REMARK SMILES IDX 11 1 12 2 13 3 14 4 22 5 23 6 2 7 1 8 3 9 4 11 5 12 6 13
REMARK SMILES IDX 10 14 7 15 9 16 8 17 24 18 25 19 26 20 27 21 15 22 16 24
REMARK SMILES IDX 17 25 21 26 18 27 20 28 19 29
REMARK H PARENT 3 10 15 23
ROOT
ATOM      1  C   UNL     1      -0.262   1.141  -0.805  1.00  0.00     0.089 A 
ATOM      2  C   UNL     1       0.023  -0.224  -0.651  1.00  0.00     0.131 A 
ATOM      3  N   UNL     1      -0.029  -1.061  -1.716  1.00  0.00    -0.220 NA
ATOM      4  C   UNL     1      -0.369  -0.610  -2.950  1.00  0.00     0.227 A 
ATOM      5  N   UNL     1      -0.644   0.707  -3.128  1.00  0.00    -0.207 NA
ATOM      6  C   UNL     1      -0.615   1.598  -2.099  1.00  0.00     0.162 A 
ENDROOT
BRANCH   1   7
ATOM      7  C   UNL     1      -0.164   2.031   0.377  1.00  0.00     0.255 C 
ATOM      8  O   UNL     1       0.330   3.185   0.259  1.00  0.00    -0.269 OA
ATOM      9  N   UNL     1      -0.607   1.573   1.664  1.00  0.00    -0.352 N 
ATOM     10  H   UNL     1      -1.178   0.700   1.725  1.00  0.00     0.163 HD
BRANCH   9  11
ATOM     11  C   UNL     1      -0.367   2.327   2.894  1.00  0.00     0.120 C 
BRANCH  11  12
ATOM     12  C   UNL     1       1.119   2.243   3.316  1.00  0.00     0.013 C 
ATOM     13  C   UNL     1       1.414   3.201   4.484  1.00  0.00     0.034 C 
ATOM     14  C   UNL     1       1.541   0.800   3.691  1.00  0.00     0.034 C 
ATOM     15  C   UNL     1       0.812   2.693   5.817  1.00  0.00     0.160 C 
ATOM     16  C   UNL     1       1.446   0.542   5.206  1.00  0.00     0.160 C 
ATOM     17  O   UNL     1       0.425   1.328   5.784  1.00  0.00    -0.381 OA
ENDBRANCH  11  12
ENDBRANCH   9  11
ENDBRANCH   1   7
BRANCH   6  18
ATOM     18  C   UNL     1      -0.964   3.035  -2.395  1.00  0.00     0.434 C 
ATOM     19  F   UNL     1      -1.870   3.513  -1.466  1.00  0.00    -0.164 F 
ATOM     20  F   UNL     1      -1.538   3.140  -3.651  1.00  0.00    -0.164 F 
ATOM     21  F   UNL     1       0.181   3.809  -2.372  1.00  0.00    -0.164 F 
ENDBRANCH   6  18
BRANCH   4  22
ATOM     22  N   UNL     1      -0.389  -1.496  -4.078  1.00  0.00    -0.324 N 
ATOM     23  H   UNL     1      -0.357  -1.065  -5.030  1.00  0.00     0.170 HD
BRANCH  22  24
ATOM     24  C   UNL     1      -0.339  -2.929  -3.982  1.00  0.00     0.041 A 
ATOM     25  C   UNL     1      -0.998  -3.619  -2.947  1.00  0.00     0.026 A 
ATOM     26  C   UNL     1       0.328  -3.663  -4.976  1.00  0.00     0.026 A 
ATOM     27  C   UNL     1      -0.955  -5.016  -2.892  1.00  0.00     0.002 A 
ATOM     28  C   UNL     1       0.370  -5.060  -4.916  1.00  0.00     0.002 A 
ATOM     29  C   UNL     1      -0.267  -5.735  -3.872  1.00  0.00     0.000 A 
ENDBRANCH  22  24
ENDBRANCH   4  22
TORSDOF 6
