REMARK SMILES O=C(NC[C@@H]1NCC[C@@H]1C1CC1)c1ccc(N2CCCS2(=O)=O)cc1Cl
REMARK SMILES IDX 1 1 2 2 3 3 13 5 14 6 25 7 15 8 24 9 16 10 26 11 17 12 18 13
REMARK SMILES IDX 21 14 19 15 20 16 22 17 23 18 4 19 5 20 6 21 9 22 7 23 8 24
REMARK SMILES IDX 10 26 11 27 12 28
REMARK H PARENT 3 4 6 25
ROOT
ATOM      1  O   UNL     1      -0.083   1.926  -1.922  1.00  0.00    -0.269 OA
ATOM      2  C   UNL     1      -0.012   1.001  -1.067  1.00  0.00     0.252 C 
ATOM      3  N   UNL     1      -0.800   1.073   0.131  1.00  0.00    -0.350 N 
ATOM      4  H   UNL     1      -0.868   0.226   0.739  1.00  0.00     0.163 HD
ENDROOT
BRANCH   2   5
ATOM      5  C   UNL     1       0.846  -0.172  -1.338  1.00  0.00     0.058 A 
ATOM      6  C   UNL     1       0.835  -0.736  -2.622  1.00  0.00     0.017 A 
ATOM      7  C   UNL     1       1.686  -0.732  -0.352  1.00  0.00     0.055 A 
ATOM      8  C   UNL     1       1.617  -1.855  -2.918  1.00  0.00     0.028 A 
ATOM      9  C   UNL     1       2.463  -1.857  -0.653  1.00  0.00     0.048 A 
ATOM     10  C   UNL     1       2.435  -2.439  -1.935  1.00  0.00     0.053 A 
ATOM     11  Cl  UNL     1       1.870  -0.009   1.244  1.00  0.00    -0.083 Cl
BRANCH  10  12
ATOM     12  N   UNL     1       3.245  -3.599  -2.237  1.00  0.00    -0.270 N 
ATOM     13  C   UNL     1       4.224  -4.182  -1.323  1.00  0.00     0.136 C 
ATOM     14  S   UNL     1       3.037  -4.586  -3.628  1.00  0.00     0.235 S 
ATOM     15  C   UNL     1       4.990  -5.304  -2.059  1.00  0.00     0.041 C 
ATOM     16  C   UNL     1       4.108  -5.902  -3.160  1.00  0.00     0.162 C 
ATOM     17  O   UNL     1       1.616  -5.054  -3.772  1.00  0.00    -0.206 OA
ATOM     18  O   UNL     1       3.522  -3.895  -4.871  1.00  0.00    -0.206 OA
ENDBRANCH  10  12
ENDBRANCH   2   5
BRANCH   3  19
ATOM     19  C   UNL     1      -1.512   2.297   0.500  1.00  0.00     0.135 C 
BRANCH  19  20
ATOM     20  C   UNL     1      -2.236   2.134   1.853  1.00  0.00     0.076 C 
ATOM     21  N   UNL     1      -3.203   1.032   1.748  1.00  0.00    -0.312 NA
ATOM     22  C   UNL     1      -3.031   3.375   2.283  1.00  0.00     0.012 C 
ATOM     23  C   UNL     1      -4.550   1.617   1.741  1.00  0.00     0.081 C 
ATOM     24  C   UNL     1      -4.413   3.131   1.699  1.00  0.00     0.021 C 
ATOM     25  H   UNL     1      -3.108   0.420   2.593  1.00  0.00     0.123 HD
BRANCH  22  26
ATOM     26  C   UNL     1      -2.313   4.729   2.020  1.00  0.00    -0.006 C 
ATOM     27  C   UNL     1      -2.522   5.475   0.707  1.00  0.00     0.004 C 
ATOM     28  C   UNL     1      -3.199   5.967   1.980  1.00  0.00     0.004 C 
ENDBRANCH  22  26
ENDBRANCH  19  20
ENDBRANCH   3  19
TORSDOF 5
