REMARK SMILES O=C(Nc1cccc(-c2[nH]nc3c2COCC3)c1)c1cncc(O)c1
REMARK SMILES IDX 1 1 2 2 3 3 19 5 20 6 25 7 21 8 23 9 22 10 24 11 4 13 5 14
REMARK SMILES IDX 18 15 6 16 8 17 7 18 9 19 10 20 13 21 11 22 14 23 12 24
REMARK SMILES IDX 15 25 17 26 16 27
REMARK H PARENT 3 4 24 12 10 28
ROOT
ATOM      1  O   UNL     1      -1.578  -1.442   0.289  1.00  0.00    -0.269 OA
ATOM      2  C   UNL     1      -0.625  -1.834   1.017  1.00  0.00     0.257 C 
ATOM      3  N   UNL     1       0.703  -1.911   0.470  1.00  0.00    -0.322 N 
ATOM      4  H   UNL     1       1.354  -2.630   0.860  1.00  0.00     0.170 HD
ENDROOT
BRANCH   2   5
ATOM      5  C   UNL     1      -0.899  -2.256   2.412  1.00  0.00     0.062 A 
ATOM      6  C   UNL     1      -2.210  -2.553   2.823  1.00  0.00     0.125 A 
ATOM      7  C   UNL     1       0.133  -2.347   3.362  1.00  0.00     0.063 A 
ATOM      8  N   UNL     1      -2.460  -2.933   4.104  1.00  0.00    -0.260 NA
ATOM      9  C   UNL     1      -0.152  -2.740   4.676  1.00  0.00     0.134 A 
ATOM     10  C   UNL     1      -1.470  -3.034   5.028  1.00  0.00     0.157 A 
BRANCH   9  11
ATOM     11  O   UNL     1       0.859  -2.836   5.630  1.00  0.00    -0.506 OA
ATOM     12  H   UNL     1       1.824  -2.627   5.402  1.00  0.00     0.293 HD
ENDBRANCH   9  11
ENDBRANCH   2   5
BRANCH   3  13
ATOM     13  C   UNL     1       1.134  -1.166  -0.682  1.00  0.00     0.042 A 
ATOM     14  C   UNL     1       2.135  -1.695  -1.509  1.00  0.00     0.026 A 
ATOM     15  C   UNL     1       0.613   0.109  -0.965  1.00  0.00     0.036 A 
ATOM     16  C   UNL     1       2.586  -0.978  -2.619  1.00  0.00     0.003 A 
ATOM     17  C   UNL     1       1.052   0.831  -2.089  1.00  0.00     0.002 A 
ATOM     18  C   UNL     1       2.047   0.277  -2.910  1.00  0.00     0.010 A 
BRANCH  17  19
ATOM     19  C   UNL     1       0.495   2.168  -2.398  1.00  0.00     0.071 A 
ATOM     20  N   UNL     1       1.189   3.170  -2.986  1.00  0.00    -0.277 N 
ATOM     21  C   UNL     1      -0.796   2.620  -2.191  1.00  0.00     0.027 A 
ATOM     22  N   UNL     1       0.406   4.229  -3.148  1.00  0.00    -0.180 NA
ATOM     23  C   UNL     1      -2.029   1.982  -1.625  1.00  0.00     0.200 C 
ATOM     24  C   UNL     1      -0.800   3.905  -2.649  1.00  0.00     0.071 A 
ATOM     25  O   UNL     1      -3.195   2.649  -2.098  1.00  0.00    -0.376 OA
ATOM     26  C   UNL     1      -2.042   4.732  -2.693  1.00  0.00     0.087 C 
ATOM     27  C   UNL     1      -3.126   4.047  -1.831  1.00  0.00     0.167 C 
ATOM     28  H   UNL     1       2.192   3.144  -3.272  1.00  0.00     0.190 HD
ENDBRANCH  17  19
ENDBRANCH   3  13
TORSDOF 4
