REMARK SMILES O=C(Nc1nc2ccccc2n1C1CCCC1)c1coc(C2CCOCC2)n1
REMARK SMILES IDX 1 1 2 2 3 3 18 5 19 6 28 7 20 8 21 9 22 10 23 11 27 12 24 13
REMARK SMILES IDX 26 14 25 15 4 16 5 17 12 18 6 19 11 20 7 21 10 22 8 23 9 24
REMARK SMILES IDX 13 25 14 26 17 27 15 28 16 29
REMARK H PARENT 3 4
ROOT
ATOM      1  O   UNL     1       0.940  -2.288   2.857  1.00  0.00    -0.267 OA
ATOM      2  C   UNL     1       0.076  -1.755   2.109  1.00  0.00     0.279 C 
ATOM      3  N   UNL     1       0.478  -0.871   1.049  1.00  0.00    -0.290 N 
ATOM      4  H   UNL     1      -0.271  -0.420   0.480  1.00  0.00     0.173 HD
ENDROOT
BRANCH   2   5
ATOM      5  C   UNL     1      -1.350  -2.029   2.345  1.00  0.00     0.167 A 
ATOM      6  C   UNL     1      -1.873  -2.839   3.329  1.00  0.00     0.231 A 
ATOM      7  N   UNL     1      -2.352  -1.512   1.611  1.00  0.00    -0.208 NA
ATOM      8  O   UNL     1      -3.176  -2.820   3.201  1.00  0.00    -0.448 OA
ATOM      9  C   UNL     1      -3.458  -2.031   2.187  1.00  0.00     0.198 A 
BRANCH   9  10
ATOM     10  C   UNL     1      -4.865  -1.777   1.709  1.00  0.00     0.080 C 
ATOM     11  C   UNL     1      -5.242  -2.727   0.560  1.00  0.00     0.042 C 
ATOM     12  C   UNL     1      -5.098  -0.307   1.305  1.00  0.00     0.042 C 
ATOM     13  C   UNL     1      -4.674  -2.231  -0.776  1.00  0.00     0.161 C 
ATOM     14  C   UNL     1      -4.586  -0.012  -0.116  1.00  0.00     0.161 C 
ATOM     15  O   UNL     1      -5.129  -0.920  -1.055  1.00  0.00    -0.381 OA
ENDBRANCH   9  10
ENDBRANCH   2   5
BRANCH   3  16
ATOM     16  C   UNL     1       1.853  -0.635   0.704  1.00  0.00     0.211 A 
ATOM     17  N   UNL     1       2.841  -1.515   1.014  1.00  0.00    -0.213 NA
ATOM     18  N   UNL     1       2.284   0.443  -0.015  1.00  0.00    -0.307 N 
ATOM     19  C   UNL     1       3.930  -0.958   0.460  1.00  0.00     0.091 A 
ATOM     20  C   UNL     1       3.608   0.213  -0.165  1.00  0.00     0.070 A 
ATOM     21  C   UNL     1       5.229  -1.460   0.471  1.00  0.00     0.031 A 
ATOM     22  C   UNL     1       4.576   0.969  -0.838  1.00  0.00     0.028 A 
ATOM     23  C   UNL     1       6.224  -0.719  -0.189  1.00  0.00     0.002 A 
ATOM     24  C   UNL     1       5.899   0.490  -0.842  1.00  0.00     0.002 A 
BRANCH  18  25
ATOM     25  C   UNL     1       1.485   1.596  -0.479  1.00  0.00     0.091 C 
ATOM     26  C   UNL     1       1.418   1.672  -2.002  1.00  0.00     0.025 C 
ATOM     27  C   UNL     1       2.037   2.941   0.013  1.00  0.00     0.025 C 
ATOM     28  C   UNL     1       1.348   3.154  -2.322  1.00  0.00     0.002 C 
ATOM     29  C   UNL     1       2.107   3.857  -1.206  1.00  0.00     0.002 C 
ENDBRANCH  18  25
ENDBRANCH   3  16
TORSDOF 4
