REMARK SMILES CN1CCC[C@@H](N2CCN(C(=O)Cc3csc(-c4cccs4)n3)CC2)C1
REMARK SMILES IDX 7 1 8 2 9 3 10 4 24 5 25 6 11 7 12 8 6 9 2 10 3 11 26 12
REMARK SMILES IDX 4 13 5 14 1 15 13 16 14 17 15 18 23 19 16 20 17 21 18 22
REMARK SMILES IDX 19 23 22 24 20 25 21 26
REMARK H PARENT
ROOT
ATOM      1  N   UNL     1      -0.107  -1.932  -2.553  1.00  0.00    -0.296 NA
ATOM      2  C   UNL     1      -0.143  -2.985  -1.513  1.00  0.00     0.106 C 
ATOM      3  C   UNL     1       0.472  -2.506  -0.194  1.00  0.00     0.135 C 
ATOM      4  N   UNL     1       1.819  -1.959  -0.412  1.00  0.00    -0.340 N 
ATOM      5  C   UNL     1       2.063  -1.104  -1.585  1.00  0.00     0.135 C 
ATOM      6  C   UNL     1       1.315  -1.613  -2.828  1.00  0.00     0.106 C 
ATOM      7  C   UNL     1       2.784  -1.935   0.664  1.00  0.00     0.228 C 
ATOM      8  O   UNL     1       4.003  -1.744   0.404  1.00  0.00    -0.274 OA
ENDROOT
BRANCH   1   9
ATOM      9  C   UNL     1      -0.956  -0.726  -2.278  1.00  0.00     0.071 C 
ATOM     10  N   UNL     1      -1.921  -0.431  -4.612  1.00  0.00    -0.305 NA
ATOM     11  C   UNL     1      -3.253  -0.877  -4.151  1.00  0.00     0.084 C 
ATOM     12  C   UNL     1      -1.110   0.180  -3.534  1.00  0.00     0.103 C 
ATOM     13  C   UNL     1      -3.184  -1.764  -2.898  1.00  0.00     0.017 C 
ATOM     14  C   UNL     1      -2.386  -1.066  -1.797  1.00  0.00     0.022 C 
ATOM     15  C   UNL     1      -1.207  -1.465  -5.378  1.00  0.00     0.105 C 
ENDBRANCH   1   9
BRANCH   7  16
ATOM     16  C   UNL     1       2.381  -2.103   2.106  1.00  0.00     0.157 C 
BRANCH  16  17
ATOM     17  C   UNL     1       1.389  -1.053   2.510  1.00  0.00     0.061 A 
ATOM     18  C   UNL     1       0.208  -1.344   3.189  1.00  0.00     0.091 A 
ATOM     19  N   UNL     1       1.586   0.265   2.233  1.00  0.00    -0.240 NA
ATOM     20  S   UNL     1      -0.617   0.101   3.424  1.00  0.00    -0.121 S 
ATOM     21  C   UNL     1       0.564   1.032   2.670  1.00  0.00     0.133 A 
BRANCH  21  22
ATOM     22  C   UNL     1       0.506   2.486   2.484  1.00  0.00     0.063 A 
ATOM     23  C   UNL     1       1.472   3.263   1.855  1.00  0.00     0.023 A 
ATOM     24  S   UNL     1      -0.744   3.493   2.988  1.00  0.00    -0.141 S 
ATOM     25  C   UNL     1       1.147   4.624   1.818  1.00  0.00     0.012 A 
ATOM     26  C   UNL     1      -0.071   4.924   2.415  1.00  0.00     0.065 A 
ENDBRANCH  21  22
ENDBRANCH  16  17
ENDBRANCH   7  16
TORSDOF 4
