REMARK SMILES O=C1CC[C@@H](c2cccc(NC(=O)c3ccc(Oc4ccccc4)cn3)c2)N1
REMARK SMILES IDX 13 1 12 2 11 3 14 5 15 6 26 7 16 8 25 9 17 10 18 11 19 12
REMARK SMILES IDX 20 13 24 14 21 15 23 16 22 17 10 18 9 19 27 20 8 21 6 22
REMARK SMILES IDX 7 23 5 24 4 25 28 26 3 27 2 28 1 29
REMARK H PARENT 11 4 28 30
ROOT
ATOM      1  O   UNL     1       0.553   1.626  -0.843  1.00  0.00    -0.267 OA
ATOM      2  C   UNL     1       1.014   1.190   0.248  1.00  0.00     0.274 C 
ATOM      3  N   UNL     1       0.868   1.966   1.450  1.00  0.00    -0.321 N 
ATOM      4  H   UNL     1       1.522   1.777   2.243  1.00  0.00     0.170 HD
ENDROOT
BRANCH   2   5
ATOM      5  C   UNL     1       1.735  -0.101   0.275  1.00  0.00     0.128 A 
ATOM      6  C   UNL     1       1.934  -0.845  -0.900  1.00  0.00     0.038 A 
ATOM      7  N   UNL     1       2.214  -0.581   1.455  1.00  0.00    -0.247 NA
ATOM      8  C   UNL     1       2.615  -2.062  -0.836  1.00  0.00     0.051 A 
ATOM      9  C   UNL     1       2.879  -1.764   1.539  1.00  0.00     0.159 A 
ATOM     10  C   UNL     1       3.083  -2.542   0.397  1.00  0.00     0.145 A 
BRANCH  10  11
ATOM     11  O   UNL     1       3.787  -3.749   0.512  1.00  0.00    -0.456 OA
BRANCH  11  12
ATOM     12  C   UNL     1       3.610  -4.875  -0.306  1.00  0.00     0.127 A 
ATOM     13  C   UNL     1       4.703  -5.721  -0.533  1.00  0.00     0.047 A 
ATOM     14  C   UNL     1       2.359  -5.203  -0.862  1.00  0.00     0.047 A 
ATOM     15  C   UNL     1       4.562  -6.862  -1.329  1.00  0.00     0.004 A 
ATOM     16  C   UNL     1       2.220  -6.346  -1.657  1.00  0.00     0.004 A 
ATOM     17  C   UNL     1       3.322  -7.172  -1.894  1.00  0.00     0.000 A 
ENDBRANCH  11  12
ENDBRANCH  10  11
ENDBRANCH   2   5
BRANCH   3  18
ATOM     18  C   UNL     1      -0.045   3.069   1.587  1.00  0.00     0.041 A 
ATOM     19  C   UNL     1       0.289   4.138   2.431  1.00  0.00     0.026 A 
ATOM     20  C   UNL     1      -1.294   3.071   0.940  1.00  0.00     0.032 A 
ATOM     21  C   UNL     1      -0.591   5.209   2.598  1.00  0.00     0.003 A 
ATOM     22  C   UNL     1      -2.181   4.153   1.095  1.00  0.00    -0.024 A 
ATOM     23  C   UNL     1      -1.819   5.219   1.933  1.00  0.00     0.006 A 
BRANCH  22  24
ATOM     24  C   UNL     1      -3.527   4.153   0.404  1.00  0.00     0.113 C 
ATOM     25  C   UNL     1      -4.468   3.054   0.962  1.00  0.00     0.040 C 
ATOM     26  N   UNL     1      -3.369   3.861  -1.010  1.00  0.00    -0.349 N 
ATOM     27  C   UNL     1      -4.733   2.057  -0.178  1.00  0.00     0.102 C 
ATOM     28  C   UNL     1      -4.056   2.674  -1.335  1.00  0.00     0.220 C 
ATOM     29  O   UNL     1      -4.071   2.193  -2.498  1.00  0.00    -0.275 OA
ATOM     30  H   UNL     1      -2.827   4.444  -1.686  1.00  0.00     0.164 HD
ENDBRANCH  22  24
ENDBRANCH   3  18
TORSDOF 5
