REMARK SMILES O=C(c1ccc2c(c1)[nH]c(=O)n2C1CCCC1)N1CC[C@@H](Oc2cccc(F)c2)C1
REMARK SMILES IDX 18 1 19 2 20 3 21 4 30 5 2 6 1 7 3 8 4 9 8 10 5 11 7 12 6 13
REMARK SMILES IDX 9 14 12 15 10 16 11 17 13 19 14 20 17 21 15 22 16 23 22 24
REMARK SMILES IDX 23 25 24 26 29 27 25 28 27 29 26 30 28 31
REMARK H PARENT 9 18
ROOT
ATOM      1  N   UNL     1      -3.048  -1.583   0.361  1.00  0.00    -0.335 N 
ATOM      2  C   UNL     1      -4.317  -2.280   0.262  1.00  0.00     0.124 C 
ATOM      3  C   UNL     1      -4.185  -3.193  -0.949  1.00  0.00     0.068 C 
ATOM      4  C   UNL     1      -3.043  -2.611  -1.783  1.00  0.00     0.194 C 
ATOM      5  C   UNL     1      -2.186  -1.827  -0.786  1.00  0.00     0.165 C 
ENDROOT
BRANCH   1   6
ATOM      6  C   UNL     1      -2.789  -0.573   1.356  1.00  0.00     0.254 C 
ATOM      7  O   UNL     1      -3.753  -0.058   1.986  1.00  0.00    -0.269 OA
BRANCH   6   8
ATOM      8  C   UNL     1      -1.418  -0.114   1.649  1.00  0.00     0.042 A 
ATOM      9  C   UNL     1      -1.153   1.270   1.806  1.00  0.00     0.016 A 
ATOM     10  C   UNL     1      -0.371  -1.051   1.812  1.00  0.00     0.042 A 
ATOM     11  C   UNL     1       0.148   1.731   2.082  1.00  0.00     0.029 A 
ATOM     12  C   UNL     1       0.901  -0.564   2.096  1.00  0.00     0.067 A 
ATOM     13  C   UNL     1       1.162   0.775   2.223  1.00  0.00     0.069 A 
ATOM     14  N   UNL     1       2.037  -1.265   2.244  1.00  0.00    -0.306 N 
ATOM     15  N   UNL     1       2.481   0.951   2.469  1.00  0.00    -0.289 N 
ATOM     16  C   UNL     1       2.978  -0.318   2.461  1.00  0.00     0.326 A 
ATOM     17  O   UNL     1       4.197  -0.591   2.620  1.00  0.00    -0.248 OA
ATOM     18  H   UNL     1       2.167  -2.297   2.168  1.00  0.00     0.171 HD
BRANCH  15  19
ATOM     19  C   UNL     1       3.217   2.222   2.627  1.00  0.00     0.092 C 
ATOM     20  C   UNL     1       4.239   2.426   1.499  1.00  0.00     0.025 C 
ATOM     21  C   UNL     1       3.996   2.271   3.954  1.00  0.00     0.025 C 
ATOM     22  C   UNL     1       5.617   2.347   2.145  1.00  0.00     0.002 C 
ATOM     23  C   UNL     1       5.411   2.717   3.606  1.00  0.00     0.002 C 
ENDBRANCH  15  19
ENDBRANCH   6   8
ENDBRANCH   1   6
BRANCH   4  24
ATOM     24  O   UNL     1      -3.589  -1.740  -2.778  1.00  0.00    -0.488 OA
BRANCH  24  25
ATOM     25  C   UNL     1      -2.861  -1.144  -3.827  1.00  0.00     0.122 A 
ATOM     26  C   UNL     1      -3.537  -0.273  -4.692  1.00  0.00     0.046 A 
ATOM     27  C   UNL     1      -1.490  -1.397  -4.039  1.00  0.00     0.085 A 
ATOM     28  C   UNL     1      -2.861   0.338  -5.751  1.00  0.00     0.007 A 
ATOM     29  C   UNL     1      -0.815  -0.775  -5.095  1.00  0.00     0.126 A 
ATOM     30  C   UNL     1      -1.500   0.092  -5.949  1.00  0.00     0.039 A 
ATOM     31  F   UNL     1       0.504  -1.024  -5.292  1.00  0.00    -0.207 F 
ENDBRANCH  24  25
ENDBRANCH   4  24
TORSDOF 5
