REMARK SMILES O=C(NC1CCOCC1)c1cncc(-c2ccc3c(c2)CCO3)c1
REMARK SMILES IDX 10 1 11 2 12 3 13 4 14 5 24 6 2 7 1 8 3 9 4 11 5 12 9 13
REMARK SMILES IDX 6 14 8 15 7 16 15 17 16 18 20 19 17 20 19 21 18 22 21 23
REMARK SMILES IDX 23 24 22 25
REMARK H PARENT 3 10
ROOT
ATOM      1  C   UNL     1      -0.066   1.623   0.531  1.00  0.00     0.058 A 
ATOM      2  C   UNL     1      -0.760   2.843   0.513  1.00  0.00     0.124 A 
ATOM      3  N   UNL     1      -1.976   2.932  -0.086  1.00  0.00    -0.263 NA
ATOM      4  C   UNL     1      -2.567   1.861  -0.675  1.00  0.00     0.119 A 
ATOM      5  C   UNL     1      -1.929   0.611  -0.679  1.00  0.00     0.001 A 
ATOM      6  C   UNL     1      -0.670   0.503  -0.064  1.00  0.00     0.025 A 
ENDROOT
BRANCH   1   7
ATOM      7  C   UNL     1       1.257   1.525   1.192  1.00  0.00     0.253 C 
ATOM      8  O   UNL     1       1.568   2.365   2.080  1.00  0.00    -0.269 OA
ATOM      9  N   UNL     1       2.196   0.501   0.823  1.00  0.00    -0.349 N 
ATOM     10  H   UNL     1       2.042  -0.028  -0.065  1.00  0.00     0.164 HD
BRANCH   9  11
ATOM     11  C   UNL     1       3.412   0.245   1.602  1.00  0.00     0.086 C 
ATOM     12  C   UNL     1       4.371  -0.676   0.831  1.00  0.00     0.053 C 
ATOM     13  C   UNL     1       3.056  -0.386   2.963  1.00  0.00     0.053 C 
ATOM     14  C   UNL     1       5.615  -1.018   1.685  1.00  0.00     0.162 C 
ATOM     15  C   UNL     1       4.246  -1.163   3.557  1.00  0.00     0.162 C 
ATOM     16  O   UNL     1       5.471  -0.669   3.054  1.00  0.00    -0.381 OA
ENDBRANCH   9  11
ENDBRANCH   1   7
BRANCH   5  17
ATOM     17  C   UNL     1      -2.570  -0.569  -1.312  1.00  0.00    -0.016 A 
ATOM     18  C   UNL     1      -1.796  -1.496  -2.056  1.00  0.00     0.012 A 
ATOM     19  C   UNL     1      -3.962  -0.785  -1.179  1.00  0.00     0.016 A 
ATOM     20  C   UNL     1      -2.398  -2.614  -2.655  1.00  0.00     0.047 A 
ATOM     21  C   UNL     1      -4.528  -1.906  -1.787  1.00  0.00    -0.002 A 
ATOM     22  C   UNL     1      -3.770  -2.787  -2.498  1.00  0.00     0.122 A 
ATOM     23  C   UNL     1      -5.948  -2.345  -1.785  1.00  0.00     0.081 C 
ATOM     24  O   UNL     1      -4.534  -3.815  -3.005  1.00  0.00    -0.493 OA
ATOM     25  C   UNL     1      -5.900  -3.644  -2.627  1.00  0.00     0.234 C 
ENDBRANCH   5  17
TORSDOF 3
