REMARK SMILES COc1ccc2nc(NC(=O)N3CCC[C@H](Nc4ccccc4)C3)sc2n1
REMARK SMILES IDX 9 1 10 2 11 3 8 5 3 6 4 7 27 8 5 9 26 10 6 11 25 12 7 13
REMARK SMILES IDX 2 14 1 15 12 16 13 17 24 18 14 19 16 20 15 21 17 22 18 24
REMARK SMILES IDX 19 25 23 26 20 27 22 28 21 29
REMARK H PARENT 9 4 17 23
ROOT
ATOM      1  N   UNL     1      -1.735   1.013   0.561  1.00  0.00    -0.283 N 
ATOM      2  C   UNL     1      -1.287   1.122  -0.801  1.00  0.00     0.323 C 
ATOM      3  O   UNL     1      -1.942   0.568  -1.726  1.00  0.00    -0.248 OA
ATOM      4  H   UNL     1      -1.339   1.661   1.277  1.00  0.00     0.174 HD
ENDROOT
BRANCH   1   5
ATOM      5  C   UNL     1      -2.738   0.085   0.995  1.00  0.00     0.193 A 
ATOM      6  C   UNL     1      -5.961  -2.929   2.548  1.00  0.00     0.214 A 
ATOM      7  C   UNL     1      -5.845  -3.315   1.195  1.00  0.00     0.071 A 
ATOM      8  N   UNL     1      -5.204  -1.898   3.034  1.00  0.00    -0.201 NA
ATOM      9  C   UNL     1      -4.952  -2.640   0.347  1.00  0.00     0.037 A 
ATOM     10  C   UNL     1      -4.346  -1.252   2.206  1.00  0.00     0.149 A 
ATOM     11  C   UNL     1      -4.200  -1.595   0.878  1.00  0.00     0.103 A 
ATOM     12  S   UNL     1      -3.329   0.025   2.586  1.00  0.00    -0.076 S 
ATOM     13  N   UNL     1      -3.298  -0.853   0.188  1.00  0.00    -0.218 NA
BRANCH   6  14
ATOM     14  O   UNL     1      -6.854  -3.612   3.378  1.00  0.00    -0.481 OA
ATOM     15  C   UNL     1      -7.030  -3.285   4.752  1.00  0.00     0.280 C 
ENDBRANCH   6  14
ENDBRANCH   1   5
BRANCH   2  16
ATOM     16  N   UNL     1      -0.113   1.891  -1.128  1.00  0.00    -0.322 N 
ATOM     17  C   UNL     1       0.027   2.443  -2.483  1.00  0.00     0.121 C 
ATOM     18  C   UNL     1       0.934   2.134  -0.124  1.00  0.00     0.146 C 
ATOM     19  C   UNL     1       1.084   3.550  -2.521  1.00  0.00     0.024 C 
ATOM     20  C   UNL     1       2.331   2.093  -0.776  1.00  0.00     0.098 C 
ATOM     21  C   UNL     1       2.439   3.060  -1.987  1.00  0.00     0.028 C 
BRANCH  20  22
ATOM     22  N   UNL     1       2.655   0.718  -1.189  1.00  0.00    -0.381 N 
ATOM     23  H   UNL     1       1.878   0.020  -1.237  1.00  0.00     0.160 HD
BRANCH  22  24
ATOM     24  C   UNL     1       3.986   0.253  -1.494  1.00  0.00     0.034 A 
ATOM     25  C   UNL     1       5.110   1.102  -1.428  1.00  0.00     0.025 A 
ATOM     26  C   UNL     1       4.171  -1.089  -1.869  1.00  0.00     0.025 A 
ATOM     27  C   UNL     1       6.384   0.612  -1.732  1.00  0.00     0.002 A 
ATOM     28  C   UNL     1       5.447  -1.573  -2.172  1.00  0.00     0.002 A 
ATOM     29  C   UNL     1       6.553  -0.724  -2.103  1.00  0.00     0.000 A 
ENDBRANCH  22  24
ENDBRANCH  20  22
ENDBRANCH   2  16
TORSDOF 5
