REMARK SMILES C[C@H]1OCC[C@]1(C)NC(=O)C1CCN(c2ccc(C#N)cc2F)CC1
REMARK SMILES IDX 11 1 12 2 13 3 14 4 24 5 25 6 9 7 8 8 10 9 6 11 2 12 3 13
REMARK SMILES IDX 4 14 5 15 1 16 7 17 15 18 16 19 22 20 17 21 21 22 18 23
REMARK SMILES IDX 19 24 20 25 23 26
REMARK H PARENT 8 10
ROOT
ATOM      1  C   UNL     1      -0.288   1.036  -1.095  1.00  0.00     0.082 C 
ATOM      2  C   UNL     1       1.224   1.385  -1.067  1.00  0.00     0.035 C 
ATOM      3  C   UNL     1       2.114   0.138  -1.010  1.00  0.00     0.117 C 
ATOM      4  N   UNL     1       1.812  -0.774  -2.125  1.00  0.00    -0.369 N 
ATOM      5  C   UNL     1       0.467  -0.771  -2.725  1.00  0.00     0.117 C 
ATOM      6  C   UNL     1      -0.580  -0.362  -1.688  1.00  0.00     0.035 C 
ENDROOT
BRANCH   1   7
ATOM      7  C   UNL     1      -0.906   1.147   0.278  1.00  0.00     0.223 C 
ATOM      8  N   UNL     1      -2.155   1.839   0.454  1.00  0.00    -0.348 N 
ATOM      9  O   UNL     1      -0.345   0.582   1.254  1.00  0.00    -0.275 OA
ATOM     10  H   UNL     1      -2.551   2.315  -0.389  1.00  0.00     0.164 HD
BRANCH   8  11
ATOM     11  C   UNL     1      -2.885   1.932   1.737  1.00  0.00     0.065 C 
ATOM     12  C   UNL     1      -3.282   0.519   2.273  1.00  0.00     0.140 C 
ATOM     13  O   UNL     1      -4.674   0.476   2.504  1.00  0.00    -0.376 OA
ATOM     14  C   UNL     1      -5.150   1.795   2.444  1.00  0.00     0.163 C 
ATOM     15  C   UNL     1      -4.251   2.570   1.515  1.00  0.00     0.059 C 
ATOM     16  C   UNL     1      -2.568   0.053   3.551  1.00  0.00     0.041 C 
ATOM     17  C   UNL     1      -2.074   2.804   2.727  1.00  0.00     0.037 C 
ENDBRANCH   8  11
ENDBRANCH   1   7
BRANCH   4  18
ATOM     18  C   UNL     1       2.812  -1.713  -2.579  1.00  0.00     0.073 A 
ATOM     19  C   UNL     1       3.645  -2.363  -1.648  1.00  0.00     0.030 A 
ATOM     20  C   UNL     1       2.974  -1.999  -3.951  1.00  0.00     0.147 A 
ATOM     21  C   UNL     1       4.606  -3.283  -2.074  1.00  0.00     0.022 A 
ATOM     22  C   UNL     1       3.939  -2.921  -4.371  1.00  0.00     0.061 A 
ATOM     23  C   UNL     1       4.754  -3.565  -3.436  1.00  0.00     0.055 A 
ATOM     24  C   UNL     1       5.745  -4.514  -3.873  1.00  0.00     0.099 C 
ATOM     25  N   UNL     1       6.540  -5.278  -4.224  1.00  0.00    -0.192 NA
ATOM     26  F   UNL     1       2.227  -1.365  -4.888  1.00  0.00    -0.205 F 
ENDBRANCH   4  18
TORSDOF 3
