REMARK SMILES Cn1nc(-c2ccc(F)cc2)cc1C(=O)N1CC[C@@](C#N)(C(N)=O)C1
REMARK SMILES IDX 14 1 15 2 13 3 2 4 3 5 4 6 12 7 1 8 5 9 6 10 11 11 7 12
REMARK SMILES IDX 10 13 8 14 9 15 16 16 17 17 25 18 18 19 19 20 20 21 21 22
REMARK SMILES IDX 22 23 23 24 24 25
REMARK H PARENT 23 26 23 27
ROOT
ATOM      1  C   UNL     1      -0.978   0.606   2.151  1.00  0.00     0.272 C 
ATOM      2  O   UNL     1      -1.436   0.592   3.325  1.00  0.00    -0.267 OA
ENDROOT
BRANCH   1   3
ATOM      3  C   UNL     1      -0.286  -0.592   1.635  1.00  0.00     0.126 A 
ATOM      4  N   UNL     1      -0.597  -1.871   1.938  1.00  0.00    -0.262 N 
ATOM      5  N   UNL     1       0.270  -2.687   1.362  1.00  0.00    -0.172 NA
ATOM      6  C   UNL     1       1.156  -1.933   0.676  1.00  0.00     0.093 A 
ATOM      7  C   UNL     1       0.838  -0.592   0.832  1.00  0.00     0.064 A 
ATOM      8  C   UNL     1      -1.692  -2.335   2.783  1.00  0.00     0.174 C 
BRANCH   6   9
ATOM      9  C   UNL     1       2.291  -2.497  -0.095  1.00  0.00     0.002 A 
ATOM     10  C   UNL     1       3.150  -1.669  -0.843  1.00  0.00     0.013 A 
ATOM     11  C   UNL     1       2.521  -3.886  -0.090  1.00  0.00     0.013 A 
ATOM     12  C   UNL     1       4.213  -2.220  -1.565  1.00  0.00     0.040 A 
ATOM     13  C   UNL     1       3.586  -4.431  -0.814  1.00  0.00     0.040 A 
ATOM     14  C   UNL     1       4.432  -3.599  -1.550  1.00  0.00     0.123 A 
ATOM     15  F   UNL     1       5.464  -4.130  -2.251  1.00  0.00    -0.207 F 
ENDBRANCH   6   9
ENDBRANCH   1   3
BRANCH   1  16
ATOM     16  N   UNL     1      -1.119   1.792   1.350  1.00  0.00    -0.335 N 
ATOM     17  C   UNL     1      -1.353   3.106   1.928  1.00  0.00     0.122 C 
ATOM     18  C   UNL     1      -1.312   1.778  -0.094  1.00  0.00     0.152 C 
ATOM     19  C   UNL     1      -1.838   3.978   0.775  1.00  0.00     0.056 C 
ATOM     20  C   UNL     1      -1.373   3.257  -0.507  1.00  0.00     0.154 C 
ATOM     21  C   UNL     1      -2.350   3.468  -1.594  1.00  0.00     0.081 C 
ATOM     22  N   UNL     1      -3.116   3.633  -2.446  1.00  0.00    -0.197 NA
BRANCH  20  23
ATOM     23  C   UNL     1       0.001   3.723  -0.968  1.00  0.00     0.239 C 
ATOM     24  N   UNL     1       0.532   3.281  -2.220  1.00  0.00    -0.368 N 
ATOM     25  O   UNL     1       0.713   4.458  -0.231  1.00  0.00    -0.273 OA
ATOM     26  H   UNL     1      -0.006   2.629  -2.832  1.00  0.00     0.159 HD
ATOM     27  H   UNL     1       1.479   3.593  -2.528  1.00  0.00     0.159 HD
ENDBRANCH  20  23
ENDBRANCH   1  16
TORSDOF 4
