REMARK SMILES CC1(C)NC(=O)C[C@H]1C(=O)N1CCC[C@]1(C)c1ccccc1
REMARK SMILES IDX 9 1 10 2 8 3 2 4 4 5 5 6 7 7 6 8 1 9 3 10 11 12 12 13 15 14
REMARK SMILES IDX 13 15 14 16 16 17 17 18 18 19 22 20 19 21 21 22 20 23
REMARK H PARENT 4 11
ROOT
ATOM      1  C   UNL     1       0.071   0.009   0.645  1.00  0.00     0.229 C 
ATOM      2  O   UNL     1       1.294   0.107   0.348  1.00  0.00    -0.274 OA
ENDROOT
BRANCH   1   3
ATOM      3  C   UNL     1      -0.427  -1.298   1.249  1.00  0.00     0.113 C 
ATOM      4  C   UNL     1      -0.489  -2.491   0.222  1.00  0.00     0.046 C 
ATOM      5  N   UNL     1       0.713  -3.268   0.484  1.00  0.00    -0.350 N 
ATOM      6  C   UNL     1       1.271  -2.878   1.720  1.00  0.00     0.221 C 
ATOM      7  C   UNL     1       0.537  -1.769   2.365  1.00  0.00     0.116 C 
ATOM      8  O   UNL     1       2.267  -3.454   2.231  1.00  0.00    -0.275 OA
ATOM      9  C   UNL     1      -1.718  -3.374   0.515  1.00  0.00     0.035 C 
ATOM     10  C   UNL     1      -0.521  -2.067  -1.259  1.00  0.00     0.035 C 
ATOM     11  H   UNL     1       1.010  -4.113  -0.054  1.00  0.00     0.164 HD
ENDBRANCH   1   3
BRANCH   1  12
ATOM     12  N   UNL     1      -0.819   1.115   0.364  1.00  0.00    -0.333 N 
ATOM     13  C   UNL     1      -2.245   1.100   0.661  1.00  0.00     0.120 C 
ATOM     14  C   UNL     1      -0.378   2.398  -0.199  1.00  0.00     0.065 C 
ATOM     15  C   UNL     1      -2.760   2.500   0.360  1.00  0.00     0.024 C 
ATOM     16  C   UNL     1      -1.683   3.174  -0.481  1.00  0.00     0.035 C 
ATOM     17  C   UNL     1       0.439   3.143   0.883  1.00  0.00     0.040 C 
BRANCH  14  18
ATOM     18  C   UNL     1       0.391   2.178  -1.512  1.00  0.00    -0.023 A 
ATOM     19  C   UNL     1       1.603   2.842  -1.811  1.00  0.00     0.006 A 
ATOM     20  C   UNL     1      -0.148   1.309  -2.485  1.00  0.00     0.006 A 
ATOM     21  C   UNL     1       2.262   2.611  -3.022  1.00  0.00     0.000 A 
ATOM     22  C   UNL     1       0.517   1.082  -3.693  1.00  0.00     0.000 A 
ATOM     23  C   UNL     1       1.723   1.729  -3.959  1.00  0.00     0.000 A 
ENDBRANCH  14  18
ENDBRANCH   1  12
TORSDOF 3
