REMARK SMILES COc1nc(C)cc(N2CCN(C(=O)C3CCCCC3)CC2)n1
REMARK SMILES IDX 3 1 4 2 5 3 6 4 7 5 8 6 23 7 2 8 1 9 9 10 10 11 22 12 11 13
REMARK SMILES IDX 21 14 12 15 13 16 14 17 15 18 16 19 20 20 17 21 19 22 18 23
REMARK H PARENT
ROOT
ATOM      1  C   UNL     1       0.182   4.209  -0.357  1.00  0.00     0.318 A 
ATOM      2  N   UNL     1       1.056   4.366   0.669  1.00  0.00    -0.200 NA
ATOM      3  C   UNL     1       1.684   3.299   1.228  1.00  0.00     0.047 A 
ATOM      4  C   UNL     1       2.663   3.510   2.339  1.00  0.00     0.067 C 
ATOM      5  C   UNL     1       1.442   2.013   0.731  1.00  0.00     0.070 A 
ATOM      6  C   UNL     1       0.538   1.855  -0.335  1.00  0.00     0.136 A 
ATOM      7  N   UNL     1      -0.067   2.964  -0.846  1.00  0.00    -0.178 NA
ENDROOT
BRANCH   1   8
ATOM      8  O   UNL     1      -0.453   5.331  -0.896  1.00  0.00    -0.467 OA
ATOM      9  C   UNL     1      -1.378   5.247  -1.975  1.00  0.00     0.282 C 
ENDBRANCH   1   8
BRANCH   6  10
ATOM     10  N   UNL     1       0.240   0.552  -0.891  1.00  0.00    -0.353 N 
ATOM     11  C   UNL     1       1.121  -0.597  -0.612  1.00  0.00     0.139 C 
ATOM     12  C   UNL     1      -0.857   0.407  -1.864  1.00  0.00     0.139 C 
ATOM     13  C   UNL     1       0.798  -1.802  -1.501  1.00  0.00     0.141 C 
ATOM     14  C   UNL     1      -1.586  -0.929  -1.673  1.00  0.00     0.141 C 
ATOM     15  N   UNL     1      -0.646  -2.044  -1.510  1.00  0.00    -0.339 N 
ATOM     16  C   UNL     1      -1.146  -3.384  -1.621  1.00  0.00     0.225 C 
ATOM     17  O   UNL     1      -1.522  -3.808  -2.747  1.00  0.00    -0.275 OA
BRANCH  16  18
ATOM     18  C   UNL     1      -1.251  -4.295  -0.420  1.00  0.00     0.078 C 
ATOM     19  C   UNL     1      -1.308  -3.512   0.908  1.00  0.00     0.013 C 
ATOM     20  C   UNL     1      -0.097  -5.315  -0.401  1.00  0.00     0.013 C 
ATOM     21  C   UNL     1      -1.436  -4.468   2.101  1.00  0.00     0.001 C 
ATOM     22  C   UNL     1      -0.227  -6.266   0.796  1.00  0.00     0.001 C 
ATOM     23  C   UNL     1      -0.288  -5.486   2.115  1.00  0.00     0.000 C 
ENDBRANCH  16  18
ENDBRANCH   6  10
TORSDOF 3
