REMARK SMILES O=S1(=O)CCCN1c1cccc(CNc2ncnc3nc[nH]c23)c1
REMARK SMILES IDX 13 1 12 2 8 3 9 4 24 5 10 6 11 7 7 8 1 9 2 10 3 11 4 12 5 13
REMARK SMILES IDX 6 14 14 15 15 17 16 18 23 19 17 20 22 21 19 22 18 23 21 24
REMARK SMILES IDX 20 25
REMARK H PARENT 14 16 22 26
ROOT
ATOM      1  C   UNL     1       0.188   2.164  -1.873  1.00  0.00     0.150 C 
ENDROOT
BRANCH   1   2
ATOM      2  C   UNL     1      -0.527   1.799  -0.600  1.00  0.00    -0.027 A 
ATOM      3  C   UNL     1      -1.516   0.093   0.851  1.00  0.00     0.052 A 
ATOM      4  C   UNL     1      -1.816   1.099   1.790  1.00  0.00     0.027 A 
ATOM      5  C   UNL     1      -0.866   0.461  -0.345  1.00  0.00     0.032 A 
ATOM      6  C   UNL     1      -1.478   2.431   1.539  1.00  0.00     0.003 A 
ATOM      7  C   UNL     1      -0.836   2.782   0.351  1.00  0.00     0.006 A 
BRANCH   3   8
ATOM      8  N   UNL     1      -1.854  -1.288   1.111  1.00  0.00    -0.270 N 
ATOM      9  O   UNL     1      -2.337  -1.655   3.705  1.00  0.00    -0.206 OA
ATOM     10  S   UNL     1      -2.942  -1.803   2.337  1.00  0.00     0.235 S 
ATOM     11  O   UNL     1      -4.266  -1.099   2.236  1.00  0.00    -0.206 OA
ATOM     12  C   UNL     1      -3.068  -3.493   1.865  1.00  0.00     0.162 C 
ATOM     13  C   UNL     1      -1.854  -3.730   0.961  1.00  0.00     0.041 C 
ATOM     14  C   UNL     1      -1.441  -2.411   0.272  1.00  0.00     0.136 C 
ENDBRANCH   3   8
ENDBRANCH   1   2
BRANCH   1  15
ATOM     15  N   UNL     1       1.534   1.596  -1.879  1.00  0.00    -0.364 N 
ATOM     16  H   UNL     1       1.727   0.800  -2.527  1.00  0.00     0.162 HD
BRANCH  15  17
ATOM     17  C   UNL     1       2.578   2.087  -1.025  1.00  0.00     0.155 A 
ATOM     18  N   UNL     1       2.380   3.180  -0.226  1.00  0.00    -0.217 NA
ATOM     19  C   UNL     1       3.830   1.478  -0.968  1.00  0.00     0.128 A 
ATOM     20  C   UNL     1       3.367   3.657   0.597  1.00  0.00     0.226 A 
ATOM     21  N   UNL     1       4.307   0.408  -1.616  1.00  0.00    -0.340 N 
ATOM     22  C   UNL     1       4.790   1.964  -0.148  1.00  0.00     0.182 A 
ATOM     23  N   UNL     1       4.589   3.046   0.642  1.00  0.00    -0.215 NA
ATOM     24  C   UNL     1       5.575   0.286  -1.150  1.00  0.00     0.199 A 
ATOM     25  N   UNL     1       5.915   1.235  -0.235  1.00  0.00    -0.217 NA
ATOM     26  H   UNL     1       3.827  -0.201  -2.315  1.00  0.00     0.168 HD
ENDBRANCH  15  17
ENDBRANCH   1  15
TORSDOF 4
