REMARK SMILES O=C(Nc1nc2ccccc2n1C1CCCC1)c1coc(C2CCOCC2)n1
REMARK SMILES IDX 1 1 2 2 3 3 18 5 19 6 28 7 20 8 21 9 22 10 23 11 27 12 24 13
REMARK SMILES IDX 26 14 25 15 4 16 5 17 12 18 6 19 11 20 7 21 10 22 8 23 9 24
REMARK SMILES IDX 13 25 14 26 17 27 15 28 16 29
REMARK H PARENT 3 4
ROOT
ATOM      1  O   UNL     1      -1.874  -2.189   1.611  1.00  0.00    -0.267 OA
ATOM      2  C   UNL     1      -0.967  -1.646   0.924  1.00  0.00     0.279 C 
ATOM      3  N   UNL     1      -1.146  -0.325   0.385  1.00  0.00    -0.290 N 
ATOM      4  H   UNL     1      -0.398   0.035  -0.240  1.00  0.00     0.173 HD
ENDROOT
BRANCH   2   5
ATOM      5  C   UNL     1       0.283  -2.378   0.668  1.00  0.00     0.167 A 
ATOM      6  C   UNL     1       0.588  -3.654   1.089  1.00  0.00     0.231 A 
ATOM      7  N   UNL     1       1.323  -1.873  -0.021  1.00  0.00    -0.208 NA
ATOM      8  O   UNL     1       1.796  -3.928   0.663  1.00  0.00    -0.448 OA
ATOM      9  C   UNL     1       2.227  -2.875   0.003  1.00  0.00     0.198 A 
BRANCH   9  10
ATOM     10  C   UNL     1       3.600  -2.793  -0.615  1.00  0.00     0.080 C 
ATOM     11  C   UNL     1       4.620  -2.217   0.382  1.00  0.00     0.042 C 
ATOM     12  C   UNL     1       3.613  -1.992  -1.933  1.00  0.00     0.042 C 
ATOM     13  C   UNL     1       4.523  -0.688   0.448  1.00  0.00     0.161 C 
ATOM     14  C   UNL     1       3.649  -0.474  -1.685  1.00  0.00     0.161 C 
ATOM     15  O   UNL     1       4.721  -0.120  -0.832  1.00  0.00    -0.381 OA
ENDBRANCH   9  10
ENDBRANCH   2   5
BRANCH   3  16
ATOM     16  C   UNL     1      -2.276   0.516   0.675  1.00  0.00     0.211 A 
ATOM     17  N   UNL     1      -3.254   0.150   1.545  1.00  0.00    -0.213 NA
ATOM     18  N   UNL     1      -2.466   1.757   0.129  1.00  0.00    -0.307 N 
ATOM     19  C   UNL     1      -4.081   1.207   1.538  1.00  0.00     0.091 A 
ATOM     20  C   UNL     1      -3.618   2.177   0.695  1.00  0.00     0.070 A 
ATOM     21  C   UNL     1      -5.258   1.358   2.268  1.00  0.00     0.031 A 
ATOM     22  C   UNL     1      -4.308   3.384   0.525  1.00  0.00     0.028 A 
ATOM     23  C   UNL     1      -5.974   2.558   2.116  1.00  0.00     0.002 A 
ATOM     24  C   UNL     1      -5.500   3.567   1.248  1.00  0.00     0.002 A 
BRANCH  18  25
ATOM     25  C   UNL     1      -1.629   2.499  -0.837  1.00  0.00     0.091 C 
ATOM     26  C   UNL     1      -0.252   2.840  -0.272  1.00  0.00     0.025 C 
ATOM     27  C   UNL     1      -1.408   1.730  -2.145  1.00  0.00     0.025 C 
ATOM     28  C   UNL     1       0.698   2.775  -1.456  1.00  0.00     0.002 C 
ATOM     29  C   UNL     1       0.090   1.783  -2.439  1.00  0.00     0.002 C 
ENDBRANCH  18  25
ENDBRANCH   3  16
TORSDOF 4
