REMARK SMILES O=C(c1ccc2cc(-c3ccccc3)[nH]c2c1)N1CC(NC2CCOCC2)C1
REMARK SMILES IDX 1 1 2 2 18 3 19 4 20 5 28 6 3 7 4 8 17 9 5 10 16 11 6 12
REMARK SMILES IDX 15 13 7 14 8 15 9 17 10 18 14 19 11 20 13 21 12 22 21 23
REMARK SMILES IDX 22 25 23 26 27 27 24 28 26 29 25 30
REMARK H PARENT 15 16 21 24
ROOT
ATOM      1  O   UNL     1       1.227  -3.422   3.040  1.00  0.00    -0.269 OA
ATOM      2  C   UNL     1       0.942  -2.451   2.288  1.00  0.00     0.254 C 
ATOM      3  N   UNL     1      -0.025  -1.495   2.732  1.00  0.00    -0.335 N 
ATOM      4  C   UNL     1      -0.819  -0.377   2.182  1.00  0.00     0.140 C 
ATOM      5  C   UNL     1      -1.674  -0.178   3.400  1.00  0.00     0.093 C 
ATOM      6  C   UNL     1      -0.850  -1.306   3.940  1.00  0.00     0.140 C 
ENDROOT
BRANCH   2   7
ATOM      7  C   UNL     1       1.573  -2.353   0.956  1.00  0.00     0.042 A 
ATOM      8  C   UNL     1       1.901  -3.537   0.243  1.00  0.00     0.014 A 
ATOM      9  C   UNL     1       1.885  -1.095   0.392  1.00  0.00     0.040 A 
ATOM     10  C   UNL     1       2.505  -3.472  -1.025  1.00  0.00     0.011 A 
ATOM     11  C   UNL     1       2.488  -1.066  -0.864  1.00  0.00     0.047 A 
ATOM     12  C   UNL     1       2.781  -2.213  -1.549  1.00  0.00     0.000 A 
ATOM     13  N   UNL     1       2.865   0.018  -1.561  1.00  0.00    -0.355 N 
ATOM     14  C   UNL     1       3.368  -1.847  -2.740  1.00  0.00     0.037 A 
ATOM     15  C   UNL     1       3.405  -0.450  -2.715  1.00  0.00     0.046 A 
ATOM     16  H   UNL     1       2.740   1.013  -1.269  1.00  0.00     0.167 HD
BRANCH  15  17
ATOM     17  C   UNL     1       3.960   0.416  -3.787  1.00  0.00    -0.002 A 
ATOM     18  C   UNL     1       4.358   1.737  -3.506  1.00  0.00     0.010 A 
ATOM     19  C   UNL     1       4.101  -0.070  -5.101  1.00  0.00     0.010 A 
ATOM     20  C   UNL     1       4.882   2.550  -4.516  1.00  0.00     0.001 A 
ATOM     21  C   UNL     1       4.625   0.748  -6.107  1.00  0.00     0.001 A 
ATOM     22  C   UNL     1       5.015   2.056  -5.815  1.00  0.00     0.000 A 
ENDBRANCH  15  17
ENDBRANCH   2   7
BRANCH   5  23
ATOM     23  N   UNL     1      -3.091  -0.547   3.218  1.00  0.00    -0.308 NA
ATOM     24  H   UNL     1      -3.152  -1.419   2.639  1.00  0.00     0.123 HD
BRANCH  23  25
ATOM     25  C   UNL     1      -3.847   0.531   2.553  1.00  0.00     0.058 C 
ATOM     26  C   UNL     1      -5.191  -0.005   2.030  1.00  0.00     0.047 C 
ATOM     27  C   UNL     1      -4.102   1.702   3.531  1.00  0.00     0.047 C 
ATOM     28  C   UNL     1      -6.042   1.130   1.411  1.00  0.00     0.161 C 
ATOM     29  C   UNL     1      -5.348   2.516   3.139  1.00  0.00     0.161 C 
ATOM     30  O   UNL     1      -5.582   2.429   1.749  1.00  0.00    -0.381 OA
ENDBRANCH  23  25
ENDBRANCH   5  23
TORSDOF 4
