REMARK SMILES c1ccc2c(c1)OCC[C@@H]2Nc1nnc(-c2ccc3ccccc3n2)o1
REMARK SMILES IDX 15 1 14 2 13 3 12 4 26 5 16 6 21 7 22 8 20 9 23 10 19 11
REMARK SMILES IDX 24 12 18 13 25 14 17 15 11 16 10 18 9 19 4 20 8 21 3 22 5 23
REMARK SMILES IDX 7 24 2 25 6 26 1 27
REMARK H PARENT 11 17
ROOT
ATOM      1  C   UNL     1      -0.906   0.744  -0.696  1.00  0.00     0.268 A 
ATOM      2  N   UNL     1      -1.748   0.013   0.063  1.00  0.00    -0.104 NA
ATOM      3  N   UNL     1      -0.991  -0.686   0.894  1.00  0.00    -0.090 NA
ATOM      4  C   UNL     1       0.281  -0.352   0.605  1.00  0.00     0.316 A 
ATOM      5  O   UNL     1       0.345   0.523  -0.367  1.00  0.00    -0.402 OA
ENDROOT
BRANCH   1   6
ATOM      6  C   UNL     1      -1.343   1.666  -1.754  1.00  0.00     0.128 A 
ATOM      7  C   UNL     1      -4.071   4.385  -4.968  1.00  0.00     0.001 A 
ATOM      8  C   UNL     1      -4.974   3.643  -4.200  1.00  0.00     0.002 A 
ATOM      9  C   UNL     1      -2.695   4.268  -4.747  1.00  0.00     0.010 A 
ATOM     10  C   UNL     1      -4.506   2.778  -3.205  1.00  0.00     0.029 A 
ATOM     11  C   UNL     1      -2.217   3.403  -3.750  1.00  0.00     0.000 A 
ATOM     12  C   UNL     1      -3.131   2.654  -2.975  1.00  0.00     0.071 A 
ATOM     13  C   UNL     1      -0.847   3.263  -3.503  1.00  0.00     0.013 A 
ATOM     14  N   UNL     1      -2.672   1.815  -2.008  1.00  0.00    -0.243 NA
ATOM     15  C   UNL     1      -0.406   2.393  -2.503  1.00  0.00     0.035 A 
ENDBRANCH   1   6
BRANCH   4  16
ATOM     16  N   UNL     1       1.429  -0.885   1.273  1.00  0.00    -0.331 N 
ATOM     17  H   UNL     1       2.373  -0.619   0.910  1.00  0.00     0.166 HD
BRANCH  16  18
ATOM     18  C   UNL     1       1.326  -1.930   2.295  1.00  0.00     0.121 C 
ATOM     19  C   UNL     1       1.385  -3.308   1.609  1.00  0.00     0.071 C 
ATOM     20  C   UNL     1       2.422  -1.774   3.334  1.00  0.00     0.017 A 
ATOM     21  C   UNL     1       1.518  -4.419   2.650  1.00  0.00     0.232 C 
ATOM     22  C   UNL     1       2.770  -0.503   3.828  1.00  0.00     0.010 A 
ATOM     23  C   UNL     1       3.042  -2.917   3.883  1.00  0.00     0.124 A 
ATOM     24  O   UNL     1       2.672  -4.197   3.458  1.00  0.00    -0.493 OA
ATOM     25  C   UNL     1       3.762  -0.373   4.804  1.00  0.00     0.001 A 
ATOM     26  C   UNL     1       4.041  -2.776   4.852  1.00  0.00     0.047 A 
ATOM     27  C   UNL     1       4.402  -1.507   5.310  1.00  0.00     0.004 A 
ENDBRANCH  16  18
ENDBRANCH   4  16
TORSDOF 3
