REMARK SMILES CCc1noc(-c2ccc(C)c(NCc3ccc(C(=O)N4CCCC4)cc3)c2)n1
REMARK SMILES IDX 7 1 8 2 9 3 10 4 11 5 12 6 28 7 6 8 3 9 4 10 29 11 5 12 2 13
REMARK SMILES IDX 1 14 13 15 14 17 15 18 16 19 27 20 17 21 26 22 18 23 19 24
REMARK SMILES IDX 20 25 21 26 22 27 25 28 23 29 24 30
REMARK H PARENT 13 16
ROOT
ATOM      1  C   UNL     1      -0.960   2.788  -1.772  1.00  0.00     0.042 A 
ATOM      2  C   UNL     1      -0.092   3.856  -1.514  1.00  0.00     0.014 A 
ATOM      3  C   UNL     1      -0.105   4.491  -0.273  1.00  0.00     0.006 A 
ATOM      4  C   UNL     1      -0.979   4.066   0.741  1.00  0.00    -0.028 A 
ATOM      5  C   UNL     1      -0.940   4.756   2.079  1.00  0.00     0.046 C 
ATOM      6  C   UNL     1      -1.868   2.992   0.492  1.00  0.00     0.038 A 
ATOM      7  C   UNL     1      -1.851   2.371  -0.772  1.00  0.00     0.039 A 
ENDROOT
BRANCH   1   8
ATOM      8  C   UNL     1      -0.929   2.106  -3.082  1.00  0.00     0.257 A 
ATOM      9  C   UNL     1      -1.302   0.808  -4.671  1.00  0.00     0.172 A 
ATOM     10  N   UNL     1      -0.330   1.647  -5.079  1.00  0.00    -0.062 NA
ATOM     11  N   UNL     1      -1.707   1.055  -3.409  1.00  0.00    -0.192 NA
ATOM     12  O   UNL     1      -0.131   2.438  -4.069  1.00  0.00    -0.334 OA
BRANCH   9  13
ATOM     13  C   UNL     1      -1.819  -0.326  -5.498  1.00  0.00     0.078 C 
ATOM     14  C   UNL     1      -1.080  -1.615  -5.160  1.00  0.00     0.012 C 
ENDBRANCH   9  13
ENDBRANCH   1   8
BRANCH   6  15
ATOM     15  N   UNL     1      -2.773   2.533   1.520  1.00  0.00    -0.381 N 
ATOM     16  H   UNL     1      -3.013   3.167   2.314  1.00  0.00     0.160 HD
BRANCH  15  17
ATOM     17  C   UNL     1      -3.309   1.171   1.585  1.00  0.00     0.148 C 
BRANCH  17  18
ATOM     18  C   UNL     1      -2.191   0.164   1.652  1.00  0.00    -0.029 A 
ATOM     19  C   UNL     1      -1.268   0.208   2.708  1.00  0.00     0.006 A 
ATOM     20  C   UNL     1      -2.052  -0.818   0.658  1.00  0.00     0.006 A 
ATOM     21  C   UNL     1      -0.206  -0.699   2.756  1.00  0.00     0.014 A 
ATOM     22  C   UNL     1      -0.990  -1.726   0.707  1.00  0.00     0.014 A 
ATOM     23  C   UNL     1      -0.047  -1.659   1.744  1.00  0.00     0.040 A 
BRANCH  23  24
ATOM     24  C   UNL     1       1.074  -2.619   1.784  1.00  0.00     0.253 C 
ATOM     25  O   UNL     1       0.846  -3.833   1.528  1.00  0.00    -0.269 OA
ATOM     26  N   UNL     1       2.417  -2.199   2.086  1.00  0.00    -0.339 N 
ATOM     27  C   UNL     1       3.486  -3.142   2.368  1.00  0.00     0.120 C 
ATOM     28  C   UNL     1       2.911  -0.845   1.882  1.00  0.00     0.120 C 
ATOM     29  C   UNL     1       4.742  -2.299   2.540  1.00  0.00     0.023 C 
ATOM     30  C   UNL     1       4.429  -0.958   1.883  1.00  0.00     0.023 C 
ENDBRANCH  23  24
ENDBRANCH  17  18
ENDBRANCH  15  17
ENDBRANCH   6  15
TORSDOF 6
