REMARK SMILES Cc1ccc(SCC(=O)N2CCC3(CC2)C[C@H](O)CCO3)cc1
REMARK SMILES IDX 7 1 6 2 5 3 2 4 3 5 23 6 4 7 22 8 1 9 8 10 9 11 10 12 11 13
REMARK SMILES IDX 15 14 12 15 14 16 13 17 16 18 21 19 17 20 20 21 19 22 18 23
REMARK H PARENT 18 24
ROOT
ATOM      1  C   UNL     1       2.000  -0.112  -3.094  1.00  0.00     0.175 C 
ENDROOT
BRANCH   1   2
ATOM      2  S   UNL     1       0.849   0.557  -4.345  1.00  0.00    -0.116 SA
BRANCH   2   3
ATOM      3  C   UNL     1      -0.568   0.599  -3.240  1.00  0.00     0.008 A 
ATOM      4  C   UNL     1      -2.793   0.672  -1.527  1.00  0.00    -0.051 A 
ATOM      5  C   UNL     1      -1.999   1.817  -1.706  1.00  0.00     0.004 A 
ATOM      6  C   UNL     1      -2.451  -0.516  -2.192  1.00  0.00     0.004 A 
ATOM      7  C   UNL     1      -0.897   1.782  -2.567  1.00  0.00     0.015 A 
ATOM      8  C   UNL     1      -1.350  -0.548  -3.055  1.00  0.00     0.015 A 
ATOM      9  C   UNL     1      -3.962   0.701  -0.585  1.00  0.00     0.044 C 
ENDBRANCH   2   3
ENDBRANCH   1   2
BRANCH   1  10
ATOM     10  C   UNL     1       2.330   0.923  -2.056  1.00  0.00     0.232 C 
ATOM     11  O   UNL     1       2.717   2.064  -2.426  1.00  0.00    -0.274 OA
ATOM     12  N   UNL     1       2.202   0.640  -0.652  1.00  0.00    -0.342 N 
ATOM     13  C   UNL     1       1.594   1.646   0.226  1.00  0.00     0.122 C 
ATOM     14  C   UNL     1       2.616  -0.649  -0.087  1.00  0.00     0.122 C 
ATOM     15  C   UNL     1       1.555   1.168   1.684  1.00  0.00     0.057 C 
ATOM     16  C   UNL     1       1.455  -1.225   0.725  1.00  0.00     0.057 C 
ATOM     17  C   UNL     1       0.924  -0.251   1.843  1.00  0.00     0.074 C 
ATOM     18  C   UNL     1       1.316  -0.748   3.276  1.00  0.00     0.067 C 
ATOM     19  O   UNL     1      -0.488  -0.074   1.724  1.00  0.00    -0.375 OA
ATOM     20  C   UNL     1       0.446  -1.898   3.804  1.00  0.00     0.119 C 
ATOM     21  C   UNL     1      -1.229  -1.232   2.074  1.00  0.00     0.163 C 
ATOM     22  C   UNL     1      -1.029  -1.595   3.542  1.00  0.00     0.060 C 
BRANCH  20  23
ATOM     23  O   UNL     1       0.816  -3.111   3.201  1.00  0.00    -0.393 OA
ATOM     24  H   UNL     1       0.456  -3.840   3.771  1.00  0.00     0.210 HD
ENDBRANCH  20  23
ENDBRANCH   1  10
TORSDOF 4
