REMARK SMILES Cc1ccccc1C(=O)Nc1nc(-c2ccccc2OC(F)F)cs1
REMARK SMILES IDX 14 1 15 2 16 3 17 4 18 5 19 6 13 7 11 8 12 9 25 10 24 11
REMARK SMILES IDX 10 12 8 13 9 14 7 16 2 17 3 18 4 19 6 20 5 21 1 22 20 23
REMARK SMILES IDX 21 24 22 25 23 26
REMARK H PARENT 10 15
ROOT
ATOM      1  C   UNL     1      -2.844  -2.751  -0.876  1.00  0.00     0.043 A 
ATOM      2  C   UNL     1      -4.163  -2.950  -1.330  1.00  0.00     0.014 A 
ATOM      3  C   UNL     1      -4.447  -3.920  -2.292  1.00  0.00     0.001 A 
ATOM      4  C   UNL     1      -3.422  -4.704  -2.817  1.00  0.00     0.004 A 
ATOM      5  C   UNL     1      -2.109  -4.523  -2.382  1.00  0.00     0.047 A 
ATOM      6  C   UNL     1      -1.803  -3.550  -1.409  1.00  0.00     0.135 A 
ENDROOT
BRANCH   1   7
ATOM      7  C   UNL     1      -2.560  -1.701   0.137  1.00  0.00     0.087 A 
ATOM      8  C   UNL     1      -1.309  -0.159   1.195  1.00  0.00     0.190 A 
ATOM      9  N   UNL     1      -1.352  -1.075   0.204  1.00  0.00    -0.220 NA
ATOM     10  S   UNL     1      -2.763  -0.072   2.027  1.00  0.00    -0.105 S 
ATOM     11  C   UNL     1      -3.489  -1.265   1.088  1.00  0.00     0.097 A 
BRANCH   8  12
ATOM     12  N   UNL     1      -0.167   0.656   1.486  1.00  0.00    -0.298 N 
ATOM     13  C   UNL     1       1.095   0.521   0.814  1.00  0.00     0.257 C 
ATOM     14  O   UNL     1       1.341  -0.504   0.121  1.00  0.00    -0.269 OA
ATOM     15  H   UNL     1      -0.258   1.368   2.244  1.00  0.00     0.172 HD
BRANCH  13  16
ATOM     16  C   UNL     1       2.146   1.549   0.977  1.00  0.00     0.043 A 
ATOM     17  C   UNL     1       1.882   2.937   0.833  1.00  0.00    -0.038 A 
ATOM     18  C   UNL     1       2.919   3.860   1.054  1.00  0.00     0.004 A 
ATOM     19  C   UNL     1       4.207   3.421   1.368  1.00  0.00     0.000 A 
ATOM     20  C   UNL     1       3.454   1.126   1.272  1.00  0.00     0.014 A 
ATOM     21  C   UNL     1       4.476   2.057   1.468  1.00  0.00     0.001 A 
ATOM     22  C   UNL     1       0.522   3.461   0.449  1.00  0.00     0.045 C 
ENDBRANCH  13  16
ENDBRANCH   8  12
ENDBRANCH   1   7
BRANCH   6  23
ATOM     23  O   UNL     1      -0.490  -3.368  -0.941  1.00  0.00    -0.434 OA
BRANCH  23  24
ATOM     24  C   UNL     1       0.655  -4.072  -1.414  1.00  0.00     0.542 C 
ATOM     25  F   UNL     1       1.756  -3.692  -0.672  1.00  0.00    -0.167 F 
ATOM     26  F   UNL     1       0.882  -3.766  -2.744  1.00  0.00    -0.167 F 
ENDBRANCH  23  24
ENDBRANCH   6  23
TORSDOF 5
