REMARK SMILES O=C(Nc1cccc(OC(F)F)c1)c1cccc(Nc2ncccn2)c1
REMARK SMILES IDX 4 1 5 2 6 3 7 4 8 5 13 6 3 7 1 8 2 9 14 11 15 12 26 13 16 14
REMARK SMILES IDX 18 15 17 16 19 17 20 19 21 20 25 21 22 22 24 23 23 24 9 25
REMARK SMILES IDX 10 26 11 27 12 28
REMARK H PARENT 3 10 19 18
ROOT
ATOM      1  C   UNL     1      -1.068  -0.661   2.069  1.00  0.00     0.045 A 
ATOM      2  C   UNL     1      -1.648  -1.938   2.044  1.00  0.00     0.026 A 
ATOM      3  C   UNL     1      -1.823  -2.658   3.227  1.00  0.00     0.006 A 
ATOM      4  C   UNL     1      -1.407  -2.117   4.445  1.00  0.00     0.047 A 
ATOM      5  C   UNL     1      -0.806  -0.854   4.493  1.00  0.00     0.128 A 
ATOM      6  C   UNL     1      -0.630  -0.130   3.297  1.00  0.00     0.072 A 
ENDROOT
BRANCH   1   7
ATOM      7  N   UNL     1      -0.881   0.053   0.835  1.00  0.00    -0.322 N 
ATOM      8  O   UNL     1      -1.482   2.170   1.617  1.00  0.00    -0.269 OA
ATOM      9  C   UNL     1      -0.900   1.487   0.730  1.00  0.00     0.255 C 
ATOM     10  H   UNL     1      -0.841  -0.503  -0.050  1.00  0.00     0.170 HD
BRANCH   9  11
ATOM     11  C   UNL     1      -0.290   2.171  -0.436  1.00  0.00     0.042 A 
ATOM     12  C   UNL     1      -0.658   3.489  -0.755  1.00  0.00     0.014 A 
ATOM     13  C   UNL     1       0.683   1.525  -1.222  1.00  0.00     0.040 A 
ATOM     14  C   UNL     1      -0.074   4.143  -1.842  1.00  0.00     0.003 A 
ATOM     15  C   UNL     1       1.253   2.171  -2.334  1.00  0.00     0.042 A 
ATOM     16  C   UNL     1       0.880   3.490  -2.625  1.00  0.00     0.026 A 
BRANCH  15  17
ATOM     17  N   UNL     1       2.257   1.530  -3.138  1.00  0.00    -0.324 N 
ATOM     18  H   UNL     1       2.986   2.130  -3.587  1.00  0.00     0.170 HD
BRANCH  17  19
ATOM     19  C   UNL     1       2.263   0.130  -3.455  1.00  0.00     0.227 A 
ATOM     20  N   UNL     1       1.162  -0.640  -3.235  1.00  0.00    -0.221 NA
ATOM     21  N   UNL     1       3.366  -0.422  -4.029  1.00  0.00    -0.221 NA
ATOM     22  C   UNL     1       1.153  -1.960  -3.557  1.00  0.00     0.117 A 
ATOM     23  C   UNL     1       3.396  -1.738  -4.367  1.00  0.00     0.117 A 
ATOM     24  C   UNL     1       2.281  -2.541  -4.133  1.00  0.00     0.040 A 
ENDBRANCH  17  19
ENDBRANCH  15  17
ENDBRANCH   9  11
ENDBRANCH   1   7
BRANCH   5  25
ATOM     25  O   UNL     1      -0.394  -0.362   5.741  1.00  0.00    -0.435 OA
BRANCH  25  26
ATOM     26  C   UNL     1       0.204   0.913   5.956  1.00  0.00     0.542 C 
ATOM     27  F   UNL     1       0.550   1.031   7.288  1.00  0.00    -0.167 F 
ATOM     28  F   UNL     1      -0.693   1.915   5.634  1.00  0.00    -0.167 F 
ENDBRANCH  25  26
ENDBRANCH   5  25
TORSDOF 6
