REMARK SMILES Cc1cc(NC(=O)NC2CCN([C@@H](C)c3ccccc3)CC2)nn1-c1ccc(F)cc1F
REMARK SMILES IDX 5 1 6 2 7 3 8 4 4 7 2 8 3 9 24 10 23 11 1 12 25 13 26 14
REMARK SMILES IDX 31 15 27 16 30 17 28 18 32 19 29 20 9 21 10 22 22 23 11 24
REMARK SMILES IDX 21 25 12 26 13 27 14 28 15 29 16 30 20 31 17 32 19 33 18 34
REMARK H PARENT 5 5 8 6
ROOT
ATOM      1  N   UNL     1      -1.948   1.579  -0.254  1.00  0.00    -0.291 N 
ATOM      2  C   UNL     1      -1.027   0.482  -0.354  1.00  0.00     0.320 C 
ATOM      3  O   UNL     1      -1.189  -0.408  -1.232  1.00  0.00    -0.248 OA
ATOM      4  N   UNL     1       0.084   0.408   0.552  1.00  0.00    -0.335 N 
ATOM      5  H   UNL     1      -1.780   2.300   0.483  1.00  0.00     0.173 HD
ATOM      6  H   UNL     1       0.154   1.127   1.307  1.00  0.00     0.165 HD
ENDROOT
BRANCH   1   7
ATOM      7  C   UNL     1      -3.083   1.750  -1.114  1.00  0.00     0.156 A 
ATOM      8  C   UNL     1      -4.857   2.559  -2.076  1.00  0.00     0.043 A 
ATOM      9  C   UNL     1      -3.963   2.813  -1.055  1.00  0.00     0.072 A 
ATOM     10  N   UNL     1      -4.521   1.392  -2.673  1.00  0.00    -0.233 N 
ATOM     11  N   UNL     1      -3.430   0.903  -2.103  1.00  0.00    -0.150 NA
ATOM     12  C   UNL     1      -5.993   3.455  -2.466  1.00  0.00     0.067 C 
BRANCH  10  13
ATOM     13  C   UNL     1      -5.167   0.759  -3.788  1.00  0.00     0.101 A 
ATOM     14  C   UNL     1      -4.408   0.381  -4.907  1.00  0.00     0.034 A 
ATOM     15  C   UNL     1      -6.543   0.467  -3.759  1.00  0.00     0.151 A 
ATOM     16  C   UNL     1      -5.020  -0.244  -5.997  1.00  0.00     0.041 A 
ATOM     17  C   UNL     1      -7.151  -0.159  -4.852  1.00  0.00     0.080 A 
ATOM     18  C   UNL     1      -6.391  -0.510  -5.972  1.00  0.00     0.126 A 
ATOM     19  F   UNL     1      -7.285   0.743  -2.657  1.00  0.00    -0.205 F 
ATOM     20  F   UNL     1      -6.983  -1.118  -7.029  1.00  0.00    -0.207 F 
ENDBRANCH  10  13
ENDBRANCH   1   7
BRANCH   4  21
ATOM     21  C   UNL     1       1.052  -0.694   0.549  1.00  0.00     0.086 C 
ATOM     22  C   UNL     1       0.832  -1.594   1.782  1.00  0.00     0.040 C 
ATOM     23  C   UNL     1       2.485  -0.124   0.499  1.00  0.00     0.040 C 
ATOM     24  C   UNL     1       1.768  -1.199   2.931  1.00  0.00     0.087 C 
ATOM     25  C   UNL     1       3.485  -1.102   1.131  1.00  0.00     0.087 C 
ATOM     26  N   UNL     1       3.202  -1.376   2.572  1.00  0.00    -0.296 NA
BRANCH  26  27
ATOM     27  C   UNL     1       4.115  -0.622   3.479  1.00  0.00     0.083 C 
ATOM     28  C   UNL     1       3.790  -0.845   4.970  1.00  0.00     0.030 C 
BRANCH  27  29
ATOM     29  C   UNL     1       5.559  -1.043   3.257  1.00  0.00    -0.031 A 
ATOM     30  C   UNL     1       6.563  -0.072   3.094  1.00  0.00     0.005 A 
ATOM     31  C   UNL     1       5.913  -2.405   3.237  1.00  0.00     0.005 A 
ATOM     32  C   UNL     1       7.892  -0.458   2.897  1.00  0.00     0.000 A 
ATOM     33  C   UNL     1       7.244  -2.785   3.040  1.00  0.00     0.000 A 
ATOM     34  C   UNL     1       8.232  -1.813   2.868  1.00  0.00     0.000 A 
ENDBRANCH  27  29
ENDBRANCH  26  27
ENDBRANCH   4  21
TORSDOF 5
