REMARK SMILES O=C1CC[C@@H](NC(=O)c2cccnc2F)[C@H](c2ccccc2)N1
REMARK SMILES IDX 8 1 7 2 6 3 9 5 10 6 14 7 11 8 13 9 12 10 15 11 5 12 4 13
REMARK SMILES IDX 16 14 3 15 23 16 2 17 1 18 17 20 18 21 22 22 19 23 21 24
REMARK SMILES IDX 20 25
REMARK H PARENT 6 4 23 19
ROOT
ATOM      1  O   UNL     1       0.972  -2.149   0.333  1.00  0.00    -0.269 OA
ATOM      2  C   UNL     1       1.433  -1.361  -0.539  1.00  0.00     0.256 C 
ATOM      3  N   UNL     1       0.585  -0.346  -1.101  1.00  0.00    -0.347 N 
ATOM      4  H   UNL     1       0.867   0.071  -2.016  1.00  0.00     0.164 HD
ENDROOT
BRANCH   2   5
ATOM      5  C   UNL     1       2.834  -1.518  -0.990  1.00  0.00     0.094 A 
ATOM      6  C   UNL     1       3.431  -2.789  -0.994  1.00  0.00     0.020 A 
ATOM      7  C   UNL     1       3.608  -0.413  -1.399  1.00  0.00     0.225 A 
ATOM      8  C   UNL     1       4.750  -2.944  -1.421  1.00  0.00     0.021 A 
ATOM      9  N   UNL     1       4.893  -0.595  -1.806  1.00  0.00    -0.228 NA
ATOM     10  C   UNL     1       5.472  -1.824  -1.832  1.00  0.00     0.114 A 
ATOM     11  F   UNL     1       3.110   0.847  -1.350  1.00  0.00    -0.184 F 
ENDBRANCH   2   5
BRANCH   3  12
ATOM     12  C   UNL     1      -0.717  -0.002  -0.513  1.00  0.00     0.109 C 
ATOM     13  C   UNL     1      -1.565   0.830  -1.496  1.00  0.00     0.037 C 
ATOM     14  C   UNL     1      -0.526   0.745   0.832  1.00  0.00     0.134 C 
ATOM     15  C   UNL     1      -0.954   2.206  -1.790  1.00  0.00     0.102 C 
ATOM     16  N   UNL     1      -0.138   2.145   0.632  1.00  0.00    -0.347 N 
ATOM     17  C   UNL     1      -0.465   2.890  -0.549  1.00  0.00     0.220 C 
ATOM     18  O   UNL     1      -0.280   4.136  -0.567  1.00  0.00    -0.275 OA
ATOM     19  H   UNL     1       0.261   2.663   1.447  1.00  0.00     0.164 HD
BRANCH  14  20
ATOM     20  C   UNL     1      -1.765   0.640   1.704  1.00  0.00    -0.024 A 
ATOM     21  C   UNL     1      -1.924  -0.481   2.540  1.00  0.00     0.006 A 
ATOM     22  C   UNL     1      -2.794   1.603   1.658  1.00  0.00     0.006 A 
ATOM     23  C   UNL     1      -3.069  -0.623   3.329  1.00  0.00     0.000 A 
ATOM     24  C   UNL     1      -3.937   1.456   2.449  1.00  0.00     0.000 A 
ATOM     25  C   UNL     1      -4.074   0.346   3.285  1.00  0.00     0.000 A 
ENDBRANCH  14  20
ENDBRANCH   3  12
TORSDOF 3
