REMARK SMILES C[C@H]1CC[C@]2(CCN(C(=O)c3ccc(-c4nn[nH]n4)o3)C2)CC1
REMARK SMILES IDX 11 1 12 2 13 3 14 4 20 5 9 6 10 7 8 8 2 9 23 10 3 11 22 12
REMARK SMILES IDX 4 13 5 14 6 15 21 16 7 17 1 18 15 19 16 20 19 21 17 22 18 23
REMARK H PARENT 18 24
ROOT
ATOM      1  C   UNL     1      -1.230  -1.159  -2.481  1.00  0.00     0.192 A 
ATOM      2  C   UNL     1      -2.235  -1.516  -3.363  1.00  0.00     0.057 A 
ATOM      3  C   UNL     1      -3.109  -2.304  -2.644  1.00  0.00     0.055 A 
ATOM      4  C   UNL     1      -2.580  -2.379  -1.370  1.00  0.00     0.176 A 
ATOM      5  O   UNL     1      -1.465  -1.691  -1.303  1.00  0.00    -0.447 OA
ENDROOT
BRANCH   1   6
ATOM      6  C   UNL     1      -0.062  -0.316  -2.808  1.00  0.00     0.289 C 
ATOM      7  O   UNL     1       0.111   0.039  -4.005  1.00  0.00    -0.265 OA
BRANCH   6   8
ATOM      8  N   UNL     1       0.884   0.104  -1.806  1.00  0.00    -0.335 N 
ATOM      9  C   UNL     1       1.851   2.116   3.069  1.00  0.00    -0.014 C 
ATOM     10  C   UNL     1       1.663   0.597   2.825  1.00  0.00     0.004 C 
ATOM     11  C   UNL     1       2.000   2.920   1.750  1.00  0.00     0.004 C 
ATOM     12  C   UNL     1       2.401   0.146   1.560  1.00  0.00     0.009 C 
ATOM     13  C   UNL     1       1.250   2.251   0.591  1.00  0.00     0.009 C 
ATOM     14  C   UNL     1       1.810   0.819   0.280  1.00  0.00    -0.010 C 
ATOM     15  C   UNL     1       2.885   0.905  -0.826  1.00  0.00     0.030 C 
ATOM     16  C   UNL     1       0.707  -0.049  -0.370  1.00  0.00     0.127 C 
ATOM     17  C   UNL     1       2.131   0.770  -2.142  1.00  0.00     0.120 C 
ATOM     18  C   UNL     1       0.703   2.663   3.928  1.00  0.00     0.007 C 
ENDBRANCH   6   8
ENDBRANCH   1   6
BRANCH   4  19
ATOM     19  C   UNL     1      -3.157  -3.111  -0.240  1.00  0.00     0.239 A 
ATOM     20  N   UNL     1      -4.304  -3.816  -0.292  1.00  0.00    -0.105 NA
ATOM     21  N   UNL     1      -2.602  -3.164   0.986  1.00  0.00    -0.130 NA
ATOM     22  N   UNL     1      -4.452  -4.309   0.927  1.00  0.00    -0.050 NA
ATOM     23  N   UNL     1      -3.438  -3.917   1.679  1.00  0.00    -0.177 N 
ATOM     24  H   UNL     1      -3.312  -4.171   2.683  1.00  0.00     0.216 HD
ENDBRANCH   4  19
TORSDOF 3
