REMARK SMILES C[C@H]1CC[C@@]2(CCN(C(=O)c3ccc(-c4nn[nH]n4)o3)C2)CC1
REMARK SMILES IDX 11 1 12 2 13 3 14 4 20 5 9 6 10 7 8 8 2 9 3 10 23 11 4 12
REMARK SMILES IDX 22 13 5 14 6 15 21 16 7 17 1 18 15 19 16 20 19 21 17 22
REMARK SMILES IDX 18 23
REMARK H PARENT 18 24
ROOT
ATOM      1  C   UNL     1       2.766   0.387  -0.029  1.00  0.00     0.192 A 
ATOM      2  C   UNL     1       2.017   0.613  -1.170  1.00  0.00     0.057 A 
ATOM      3  C   UNL     1       2.767   0.118  -2.216  1.00  0.00     0.055 A 
ATOM      4  C   UNL     1       3.927  -0.369  -1.646  1.00  0.00     0.176 A 
ATOM      5  O   UNL     1       3.902  -0.192  -0.346  1.00  0.00    -0.447 OA
ENDROOT
BRANCH   1   6
ATOM      6  C   UNL     1       2.403   0.763   1.347  1.00  0.00     0.289 C 
ATOM      7  O   UNL     1       3.322   0.925   2.194  1.00  0.00    -0.265 OA
BRANCH   6   8
ATOM      8  N   UNL     1       1.035   0.957   1.738  1.00  0.00    -0.335 N 
ATOM      9  C   UNL     1      -3.051  -0.636   0.091  1.00  0.00    -0.014 C 
ATOM     10  C   UNL     1      -2.829  -1.359   1.444  1.00  0.00     0.004 C 
ATOM     11  C   UNL     1      -3.258   0.874   0.285  1.00  0.00     0.004 C 
ATOM     12  C   UNL     1      -2.274  -0.445   2.555  1.00  0.00     0.009 C 
ATOM     13  C   UNL     1      -2.040   1.543   0.955  1.00  0.00     0.009 C 
ATOM     14  C   UNL     1      -1.313   0.642   2.014  1.00  0.00    -0.010 C 
ATOM     15  C   UNL     1      -0.766   1.511   3.170  1.00  0.00     0.030 C 
ATOM     16  C   UNL     1      -0.031   0.020   1.418  1.00  0.00     0.127 C 
ATOM     17  C   UNL     1       0.636   1.926   2.744  1.00  0.00     0.120 C 
ATOM     18  C   UNL     1      -4.232  -1.251  -0.670  1.00  0.00     0.007 C 
ENDBRANCH   6   8
ENDBRANCH   1   6
BRANCH   4  19
ATOM     19  C   UNL     1       5.042  -0.993  -2.365  1.00  0.00     0.239 A 
ATOM     20  N   UNL     1       5.081  -1.179  -3.699  1.00  0.00    -0.105 NA
ATOM     21  N   UNL     1       6.158  -1.454  -1.771  1.00  0.00    -0.130 NA
ATOM     22  N   UNL     1       6.246  -1.765  -3.923  1.00  0.00    -0.050 NA
ATOM     23  N   UNL     1       6.879  -1.925  -2.774  1.00  0.00    -0.177 N 
ATOM     24  H   UNL     1       7.820  -2.363  -2.672  1.00  0.00     0.216 HD
ENDBRANCH   4  19
TORSDOF 3
