REMARK SMILES COc1cccc(CCC(=O)Nc2ccc(Nc3ncccn3)cc2)c1
REMARK SMILES IDX 9 1 8 2 7 3 3 4 4 5 26 6 5 7 6 8 2 9 1 10 10 11 11 12 12 13
REMARK SMILES IDX 13 15 14 16 25 17 15 18 24 19 16 20 17 21 18 23 19 24 23 25
REMARK SMILES IDX 20 26 22 27 21 28
REMARK H PARENT 12 14 17 22
ROOT
ATOM      1  C   UNL     1      -0.645   4.673   1.010  1.00  0.00     0.105 C 
ENDROOT
BRANCH   1   2
ATOM      2  C   UNL     1      -1.620   4.241   2.114  1.00  0.00     0.045 C 
BRANCH   2   3
ATOM      3  C   UNL     1      -2.507   3.106   1.664  1.00  0.00    -0.044 A 
ATOM      4  C   UNL     1      -2.954   0.714   1.526  1.00  0.00     0.119 A 
ATOM      5  C   UNL     1      -4.049   0.979   0.681  1.00  0.00     0.046 A 
ATOM      6  C   UNL     1      -2.197   1.783   2.019  1.00  0.00     0.050 A 
ATOM      7  C   UNL     1      -4.367   2.295   0.334  1.00  0.00     0.004 A 
ATOM      8  C   UNL     1      -3.597   3.355   0.817  1.00  0.00     0.004 A 
BRANCH   4   9
ATOM      9  O   UNL     1      -2.580  -0.589   1.888  1.00  0.00    -0.497 OA
ATOM     10  C   UNL     1      -3.242  -1.768   1.443  1.00  0.00     0.278 C 
ENDBRANCH   4   9
ENDBRANCH   2   3
ENDBRANCH   1   2
BRANCH   1  11
ATOM     11  C   UNL     1       0.270   3.551   0.610  1.00  0.00     0.224 C 
ATOM     12  O   UNL     1       1.375   3.412   1.200  1.00  0.00    -0.275 OA
ATOM     13  N   UNL     1      -0.128   2.637  -0.424  1.00  0.00    -0.326 N 
ATOM     14  H   UNL     1      -0.848   2.961  -1.108  1.00  0.00     0.169 HD
BRANCH  13  15
ATOM     15  C   UNL     1       0.395   1.306  -0.575  1.00  0.00     0.041 A 
ATOM     16  C   UNL     1       0.374   0.700  -1.840  1.00  0.00     0.028 A 
ATOM     17  C   UNL     1       0.850   0.563   0.530  1.00  0.00     0.028 A 
ATOM     18  C   UNL     1       0.841  -0.606  -2.010  1.00  0.00     0.028 A 
ATOM     19  C   UNL     1       1.309  -0.746   0.361  1.00  0.00     0.028 A 
ATOM     20  C   UNL     1       1.334  -1.332  -0.912  1.00  0.00     0.041 A 
BRANCH  20  21
ATOM     21  N   UNL     1       1.802  -2.683  -1.059  1.00  0.00    -0.324 N 
ATOM     22  H   UNL     1       1.656  -3.344  -0.263  1.00  0.00     0.170 HD
BRANCH  21  23
ATOM     23  C   UNL     1       2.585  -3.143  -2.169  1.00  0.00     0.227 A 
ATOM     24  N   UNL     1       3.113  -2.263  -3.065  1.00  0.00    -0.221 NA
ATOM     25  N   UNL     1       2.854  -4.471  -2.295  1.00  0.00    -0.221 NA
ATOM     26  C   UNL     1       3.888  -2.690  -4.096  1.00  0.00     0.117 A 
ATOM     27  C   UNL     1       3.626  -4.937  -3.311  1.00  0.00     0.117 A 
ATOM     28  C   UNL     1       4.164  -4.048  -4.241  1.00  0.00     0.040 A 
ENDBRANCH  21  23
ENDBRANCH  20  21
ENDBRANCH  13  15
ENDBRANCH   1  11
TORSDOF 7
