REMARK SMILES CC(=O)OCC(=O)N1CCn2ncc([S@@](C)(=O)=NC(=O)[C@@H]3CC3(C)C)c2C1
REMARK SMILES IDX 8 1 9 2 10 3 11 4 12 5 13 6 14 7 26 8 27 9 6 10 7 11 5 12
REMARK SMILES IDX 4 13 2 14 3 15 1 16 15 17 17 18 18 19 16 20 19 21 20 22
REMARK SMILES IDX 21 23 22 24 23 25 24 26 25 27
REMARK H PARENT
ROOT
ATOM      1  N   UNL     1      -0.946   0.161  -4.300  1.00  0.00    -0.332 N 
ATOM      2  C   UNL     1      -0.807   1.512  -4.878  1.00  0.00     0.143 C 
ATOM      3  C   UNL     1       0.675   1.870  -5.047  1.00  0.00     0.166 C 
ATOM      4  N   UNL     1       1.393   1.580  -3.813  1.00  0.00    -0.265 N 
ATOM      5  N   UNL     1       2.548   2.124  -3.459  1.00  0.00    -0.180 NA
ATOM      6  C   UNL     1       2.922   1.546  -2.296  1.00  0.00     0.154 A 
ATOM      7  C   UNL     1       1.975   0.602  -1.926  1.00  0.00     0.091 A 
ATOM      8  C   UNL     1       1.023   0.649  -2.919  1.00  0.00     0.075 A 
ATOM      9  C   UNL     1      -0.234  -0.162  -3.046  1.00  0.00     0.176 C 
ENDROOT
BRANCH   1  10
ATOM     10  C   UNL     1      -1.936  -0.752  -4.827  1.00  0.00     0.261 C 
ATOM     11  O   UNL     1      -2.358  -0.615  -6.008  1.00  0.00    -0.271 OA
BRANCH  10  12
ATOM     12  C   UNL     1      -2.452  -1.905  -4.014  1.00  0.00     0.332 C 
BRANCH  12  13
ATOM     13  O   UNL     1      -1.496  -2.962  -4.024  1.00  0.00    -0.456 OA
BRANCH  13  14
ATOM     14  C   UNL     1      -1.667  -4.140  -3.287  1.00  0.00     0.303 C 
ATOM     15  O   UNL     1      -2.768  -4.389  -2.719  1.00  0.00    -0.253 OA
ATOM     16  C   UNL     1      -0.527  -5.096  -3.140  1.00  0.00     0.139 C 
ENDBRANCH  13  14
ENDBRANCH  12  13
ENDBRANCH  10  12
ENDBRANCH   1  10
BRANCH   7  17
ATOM     17  S   UNL     1       1.996  -0.432  -0.505  1.00  0.00     0.083 S 
ATOM     18  O   UNL     1       3.247  -0.168   0.284  1.00  0.00    -0.244 OA
ATOM     19  N   UNL     1       0.740  -0.098   0.383  1.00  0.00    -0.157 NA
ATOM     20  C   UNL     1       1.982  -2.142  -1.011  1.00  0.00     0.140 C 
BRANCH  19  21
ATOM     21  C   UNL     1       0.424  -0.785   1.599  1.00  0.00     0.257 C 
ATOM     22  O   UNL     1       1.114  -1.770   1.984  1.00  0.00    -0.272 OA
BRANCH  21  23
ATOM     23  C   UNL     1      -0.793  -0.375   2.380  1.00  0.00     0.088 C 
ATOM     24  C   UNL     1      -0.806   1.111   2.759  1.00  0.00     0.021 C 
ATOM     25  C   UNL     1      -0.604   0.056   3.841  1.00  0.00    -0.023 C 
ATOM     26  C   UNL     1      -1.800  -0.204   4.759  1.00  0.00     0.012 C 
ATOM     27  C   UNL     1       0.796  -0.004   4.472  1.00  0.00     0.012 C 
ENDBRANCH  21  23
ENDBRANCH  19  21
ENDBRANCH   7  17
TORSDOF 7
