REMARK SMILES O=C(NCC1CCOCC1)c1cnc(Nc2ccccc2)nc1C(F)(F)F
REMARK SMILES IDX 11 1 12 2 13 3 14 4 22 5 23 6 2 7 1 8 3 9 4 11 5 12 6 13
REMARK SMILES IDX 10 14 7 15 9 16 8 17 24 18 25 19 26 20 27 21 15 22 16 24
REMARK SMILES IDX 17 25 21 26 18 27 20 28 19 29
REMARK H PARENT 3 10 15 23
ROOT
ATOM      1  C   UNL     1       1.040   0.644   0.850  1.00  0.00     0.089 A 
ATOM      2  C   UNL     1       1.136  -0.577   1.528  1.00  0.00     0.131 A 
ATOM      3  N   UNL     1       0.869  -0.646   2.856  1.00  0.00    -0.220 NA
ATOM      4  C   UNL     1       0.504   0.459   3.557  1.00  0.00     0.227 A 
ATOM      5  N   UNL     1       0.443   1.662   2.929  1.00  0.00    -0.207 NA
ATOM      6  C   UNL     1       0.710   1.797   1.601  1.00  0.00     0.162 A 
ENDROOT
BRANCH   1   7
ATOM      7  C   UNL     1       1.307   0.671  -0.601  1.00  0.00     0.255 C 
ATOM      8  O   UNL     1       2.406   0.230  -1.032  1.00  0.00    -0.269 OA
ATOM      9  N   UNL     1       0.313   1.154  -1.515  1.00  0.00    -0.352 N 
ATOM     10  H   UNL     1      -0.629   1.419  -1.150  1.00  0.00     0.163 HD
BRANCH   9  11
ATOM     11  C   UNL     1       0.557   1.283  -2.951  1.00  0.00     0.120 C 
BRANCH  11  12
ATOM     12  C   UNL     1       0.511  -0.093  -3.657  1.00  0.00     0.013 C 
ATOM     13  C   UNL     1      -0.850  -0.793  -3.473  1.00  0.00     0.034 C 
ATOM     14  C   UNL     1       0.836   0.037  -5.165  1.00  0.00     0.034 C 
ATOM     15  C   UNL     1      -1.967  -0.107  -4.296  1.00  0.00     0.160 C 
ATOM     16  C   UNL     1      -0.435   0.153  -6.026  1.00  0.00     0.160 C 
ATOM     17  O   UNL     1      -1.478   0.769  -5.300  1.00  0.00    -0.381 OA
ENDBRANCH  11  12
ENDBRANCH   9  11
ENDBRANCH   1   7
BRANCH   6  18
ATOM     18  C   UNL     1       0.639   3.180   1.000  1.00  0.00     0.434 C 
ATOM     19  F   UNL     1       0.767   4.134   1.995  1.00  0.00    -0.164 F 
ATOM     20  F   UNL     1      -0.582   3.358   0.379  1.00  0.00    -0.164 F 
ATOM     21  F   UNL     1       1.658   3.375   0.085  1.00  0.00    -0.164 F 
ENDBRANCH   6  18
BRANCH   4  22
ATOM     22  N   UNL     1       0.245   0.384   4.966  1.00  0.00    -0.324 N 
ATOM     23  H   UNL     1       0.272   1.276   5.510  1.00  0.00     0.170 HD
BRANCH  22  24
ATOM     24  C   UNL     1       0.059  -0.845   5.690  1.00  0.00     0.041 A 
ATOM     25  C   UNL     1      -0.620  -1.937   5.119  1.00  0.00     0.026 A 
ATOM     26  C   UNL     1       0.507  -0.937   7.017  1.00  0.00     0.026 A 
ATOM     27  C   UNL     1      -0.810  -3.112   5.854  1.00  0.00     0.002 A 
ATOM     28  C   UNL     1       0.316  -2.113   7.749  1.00  0.00     0.002 A 
ATOM     29  C   UNL     1      -0.339  -3.201   7.166  1.00  0.00     0.000 A 
ENDBRANCH  22  24
ENDBRANCH   4  22
TORSDOF 6
