REMARK SMILES O=C(c1ccc(-n2cnc3ccccc32)cc1)N1CCC[C@@](O)(CO)C1
REMARK SMILES IDX 18 1 19 2 20 3 21 4 22 5 26 6 2 7 1 8 3 9 4 10 17 11 5 12
REMARK SMILES IDX 16 13 6 14 7 15 8 16 15 17 9 18 14 19 10 20 13 21 11 22
REMARK SMILES IDX 12 23 23 24 24 26 25 27
REMARK H PARENT 23 25 25 28
ROOT
ATOM      1  N   UNL     1       2.113  -1.691   1.372  1.00  0.00    -0.336 N 
ATOM      2  C   UNL     1       2.995  -2.128   2.463  1.00  0.00     0.120 C 
ATOM      3  C   UNL     1       4.390  -2.488   1.942  1.00  0.00     0.025 C 
ATOM      4  C   UNL     1       4.268  -3.430   0.740  1.00  0.00     0.041 C 
ATOM      5  C   UNL     1       3.406  -2.842  -0.428  1.00  0.00     0.105 C 
ATOM      6  C   UNL     1       2.648  -1.556   0.009  1.00  0.00     0.157 C 
ENDROOT
BRANCH   1   7
ATOM      7  C   UNL     1       0.727  -1.423   1.658  1.00  0.00     0.253 C 
ATOM      8  O   UNL     1       0.116  -2.151   2.487  1.00  0.00    -0.269 OA
BRANCH   7   9
ATOM      9  C   UNL     1       0.002  -0.304   1.013  1.00  0.00     0.040 A 
ATOM     10  C   UNL     1      -1.378  -0.405   0.771  1.00  0.00     0.016 A 
ATOM     11  C   UNL     1       0.671   0.880   0.662  1.00  0.00     0.016 A 
ATOM     12  C   UNL     1      -2.071   0.650   0.171  1.00  0.00     0.027 A 
ATOM     13  C   UNL     1      -0.022   1.935   0.062  1.00  0.00     0.027 A 
ATOM     14  C   UNL     1      -1.401   1.833  -0.178  1.00  0.00     0.047 A 
BRANCH  14  15
ATOM     15  N   UNL     1      -2.104   2.916  -0.811  1.00  0.00    -0.299 N 
ATOM     16  C   UNL     1      -1.686   3.634  -1.883  1.00  0.00     0.205 A 
ATOM     17  C   UNL     1      -3.300   3.447  -0.499  1.00  0.00     0.073 A 
ATOM     18  N   UNL     1      -2.571   4.590  -2.269  1.00  0.00    -0.236 NA
ATOM     19  C   UNL     1      -4.158   3.148   0.563  1.00  0.00     0.029 A 
ATOM     20  C   UNL     1      -3.574   4.451  -1.383  1.00  0.00     0.089 A 
ATOM     21  C   UNL     1      -5.346   3.894   0.673  1.00  0.00     0.002 A 
ATOM     22  C   UNL     1      -4.739   5.209  -1.300  1.00  0.00     0.030 A 
ATOM     23  C   UNL     1      -5.638   4.918  -0.257  1.00  0.00     0.002 A 
ENDBRANCH  14  15
ENDBRANCH   7   9
ENDBRANCH   1   7
BRANCH   5  24
ATOM     24  O   UNL     1       4.274  -2.517  -1.490  1.00  0.00    -0.386 OA
ATOM     25  H   UNL     1       3.727  -2.147  -2.232  1.00  0.00     0.211 HD
ENDBRANCH   5  24
BRANCH   5  26
ATOM     26  C   UNL     1       2.385  -3.904  -0.914  1.00  0.00     0.193 C 
BRANCH  26  27
ATOM     27  O   UNL     1       3.046  -5.014  -1.464  1.00  0.00    -0.393 OA
ATOM     28  H   UNL     1       3.114  -5.699  -0.749  1.00  0.00     0.210 HD
ENDBRANCH  26  27
ENDBRANCH   5  26
TORSDOF 6
