REMARK SMILES O=C1C[C@H](Nc2nccc(Oc3ccccc3)n2)[C@H]2CCCCN12
REMARK SMILES IDX 6 1 7 2 8 3 9 4 10 5 18 6 5 7 4 9 1 10 2 11 3 12 24 13 23 14
REMARK SMILES IDX 19 15 22 16 20 17 21 18 11 19 12 20 13 21 17 22 14 23 16 24
REMARK SMILES IDX 15 25
REMARK H PARENT 5 8
ROOT
ATOM      1  C   UNL     1       0.644  -3.293  -0.416  1.00  0.00     0.226 A 
ATOM      2  N   UNL     1       1.477  -4.322  -0.106  1.00  0.00    -0.221 NA
ATOM      3  C   UNL     1       2.665  -4.101   0.514  1.00  0.00     0.121 A 
ATOM      4  C   UNL     1       3.051  -2.801   0.835  1.00  0.00     0.089 A 
ATOM      5  C   UNL     1       2.186  -1.752   0.523  1.00  0.00     0.224 A 
ATOM      6  N   UNL     1       1.003  -2.019  -0.095  1.00  0.00    -0.177 NA
ENDROOT
BRANCH   1   7
ATOM      7  N   UNL     1      -0.586  -3.565  -1.108  1.00  0.00    -0.349 N 
ATOM      8  H   UNL     1      -0.806  -4.564  -1.325  1.00  0.00     0.164 HD
BRANCH   7   9
ATOM      9  C   UNL     1      -1.546  -2.551  -1.564  1.00  0.00     0.114 C 
ATOM     10  O   UNL     1      -2.727   0.579  -0.317  1.00  0.00    -0.275 OA
ATOM     11  C   UNL     1      -2.120  -0.370  -0.880  1.00  0.00     0.225 C 
ATOM     12  C   UNL     1      -2.161  -1.763  -0.393  1.00  0.00     0.127 C 
ATOM     13  N   UNL     1      -1.371  -0.207  -2.073  1.00  0.00    -0.338 N 
ATOM     14  C   UNL     1      -1.582   0.895  -3.010  1.00  0.00     0.120 C 
ATOM     15  C   UNL     1      -0.906  -1.512  -2.534  1.00  0.00     0.108 C 
ATOM     16  C   UNL     1      -2.581   0.478  -4.107  1.00  0.00     0.022 C 
ATOM     17  C   UNL     1      -1.304  -1.739  -4.012  1.00  0.00     0.027 C 
ATOM     18  C   UNL     1      -2.637  -1.049  -4.341  1.00  0.00     0.004 C 
ENDBRANCH   7   9
ENDBRANCH   1   7
BRANCH   5  19
ATOM     19  O   UNL     1       2.572  -0.437   0.806  1.00  0.00    -0.439 OA
BRANCH  19  20
ATOM     20  C   UNL     1       1.690   0.647   0.900  1.00  0.00     0.129 A 
ATOM     21  C   UNL     1       2.116   1.906   0.458  1.00  0.00     0.047 A 
ATOM     22  C   UNL     1       0.411   0.512   1.468  1.00  0.00     0.047 A 
ATOM     23  C   UNL     1       1.267   3.013   0.553  1.00  0.00     0.004 A 
ATOM     24  C   UNL     1      -0.431   1.623   1.575  1.00  0.00     0.004 A 
ATOM     25  C   UNL     1      -0.007   2.871   1.109  1.00  0.00     0.000 A 
ENDBRANCH  19  20
ENDBRANCH   5  19
TORSDOF 4
