REMARK SMILES O=C1CC[C@@H](NC(=O)c2cccnc2F)[C@H](c2ccccc2)N1
REMARK SMILES IDX 8 1 7 2 6 3 9 5 10 6 14 7 11 8 13 9 12 10 15 11 5 12 4 13
REMARK SMILES IDX 16 14 3 15 23 16 2 17 1 18 17 20 18 21 22 22 19 23 21 24
REMARK SMILES IDX 20 25
REMARK H PARENT 6 4 23 19
ROOT
ATOM      1  O   UNL     1       2.026  -0.099  -1.101  1.00  0.00    -0.269 OA
ATOM      2  C   UNL     1       1.326  -1.090  -0.754  1.00  0.00     0.256 C 
ATOM      3  N   UNL     1       0.271  -0.918   0.205  1.00  0.00    -0.347 N 
ATOM      4  H   UNL     1      -0.074  -1.766   0.707  1.00  0.00     0.164 HD
ENDROOT
BRANCH   2   5
ATOM      5  C   UNL     1       1.626  -2.424  -1.323  1.00  0.00     0.094 A 
ATOM      6  C   UNL     1       2.943  -2.751  -1.686  1.00  0.00     0.020 A 
ATOM      7  C   UNL     1       0.615  -3.381  -1.538  1.00  0.00     0.225 A 
ATOM      8  C   UNL     1       3.233  -4.007  -2.220  1.00  0.00     0.021 A 
ATOM      9  N   UNL     1       0.928  -4.596  -2.065  1.00  0.00    -0.228 NA
ATOM     10  C   UNL     1       2.202  -4.928  -2.400  1.00  0.00     0.114 A 
ATOM     11  F   UNL     1      -0.685  -3.099  -1.274  1.00  0.00    -0.184 F 
ENDBRANCH   2   5
BRANCH   3  12
ATOM     12  C   UNL     1      -0.214   0.412   0.603  1.00  0.00     0.109 C 
ATOM     13  C   UNL     1      -1.066   0.329   1.885  1.00  0.00     0.037 C 
ATOM     14  C   UNL     1      -1.008   1.069  -0.555  1.00  0.00     0.134 C 
ATOM     15  C   UNL     1      -2.367  -0.458   1.684  1.00  0.00     0.102 C 
ATOM     16  N   UNL     1      -2.357   0.509  -0.682  1.00  0.00    -0.347 N 
ATOM     17  C   UNL     1      -3.068  -0.086   0.412  1.00  0.00     0.220 C 
ATOM     18  O   UNL     1      -4.290  -0.360   0.281  1.00  0.00    -0.275 OA
ATOM     19  H   UNL     1      -2.879   0.688  -1.570  1.00  0.00     0.164 HD
BRANCH  14  20
ATOM     20  C   UNL     1      -1.054   2.581  -0.406  1.00  0.00    -0.024 A 
ATOM     21  C   UNL     1       0.005   3.354  -0.915  1.00  0.00     0.006 A 
ATOM     22  C   UNL     1      -2.099   3.230   0.282  1.00  0.00     0.006 A 
ATOM     23  C   UNL     1       0.007   4.744  -0.764  1.00  0.00     0.000 A 
ATOM     24  C   UNL     1      -2.092   4.620   0.431  1.00  0.00     0.000 A 
ATOM     25  C   UNL     1      -1.041   5.376  -0.093  1.00  0.00     0.000 A 
ENDBRANCH  14  20
ENDBRANCH   3  12
TORSDOF 3
