REMARK SMILES Cn1c(=O)n(C)c2cc(S(=O)(=O)Nc3ccc4c(c3)NCC4)c(Br)cc21
REMARK SMILES IDX 10 1 11 2 12 3 9 4 2 5 3 6 26 7 4 8 5 9 25 10 7 11 23 12
REMARK SMILES IDX 8 13 1 14 6 15 24 16 13 17 14 19 15 20 19 21 16 22 18 23
REMARK SMILES IDX 17 24 20 25 22 26 21 27
REMARK H PARENT 13 18 20 28
ROOT
ATOM      1  S   UNL     1      -1.660   0.352   3.274  1.00  0.00     0.263 S 
ATOM      2  O   UNL     1      -2.909  -0.479   3.173  1.00  0.00    -0.201 OA
ATOM      3  O   UNL     1      -1.851   1.384   4.353  1.00  0.00    -0.201 OA
ENDROOT
BRANCH   1   4
ATOM      4  C   UNL     1      -1.329   1.187   1.752  1.00  0.00     0.104 A 
ATOM      5  N   UNL     1      -0.668   2.797  -1.980  1.00  0.00    -0.295 N 
ATOM      6  C   UNL     1      -1.732   2.220  -2.591  1.00  0.00     0.328 A 
ATOM      7  C   UNL     1      -0.760   2.379  -0.701  1.00  0.00     0.070 A 
ATOM      8  O   UNL     1      -1.962   2.324  -3.825  1.00  0.00    -0.248 OA
ATOM      9  N   UNL     1      -2.506   1.498  -1.743  1.00  0.00    -0.295 N 
ATOM     10  C   UNL     1       0.117   2.607   0.357  1.00  0.00     0.045 A 
ATOM     11  C   UNL     1      -1.875   1.596  -0.557  1.00  0.00     0.070 A 
ATOM     12  C   UNL     1      -0.174   2.010   1.600  1.00  0.00     0.040 A 
ATOM     13  C   UNL     1      -2.192   0.981   0.654  1.00  0.00     0.052 A 
ATOM     14  C   UNL     1       0.418   3.544  -2.609  1.00  0.00     0.155 C 
ATOM     15  C   UNL     1      -3.669   0.671  -2.076  1.00  0.00     0.155 C 
ATOM     16  Br  UNL     1       1.047   2.339   3.044  1.00  0.00    -0.049 Br
ENDBRANCH   1   4
BRANCH   1  17
ATOM     17  N   UNL     1      -0.321  -0.679   3.687  1.00  0.00    -0.280 N 
ATOM     18  H   UNL     1       0.004  -0.685   4.684  1.00  0.00     0.180 HD
BRANCH  17  19
ATOM     19  C   UNL     1       0.481  -1.319   2.685  1.00  0.00     0.051 A 
ATOM     20  C   UNL     1      -0.095  -1.801   1.484  1.00  0.00     0.027 A 
ATOM     21  C   UNL     1       1.868  -1.453   2.889  1.00  0.00     0.052 A 
ATOM     22  C   UNL     1       0.712  -2.374   0.485  1.00  0.00     0.008 A 
ATOM     23  C   UNL     1       2.640  -2.018   1.875  1.00  0.00     0.039 A 
ATOM     24  C   UNL     1       2.086  -2.460   0.709  1.00  0.00    -0.023 A 
ATOM     25  N   UNL     1       4.041  -2.175   1.867  1.00  0.00    -0.384 N 
ATOM     26  C   UNL     1       3.139  -2.995  -0.205  1.00  0.00     0.059 C 
ATOM     27  C   UNL     1       4.449  -2.721   0.573  1.00  0.00     0.117 C 
ATOM     28  H   UNL     1       4.688  -1.860   2.626  1.00  0.00     0.160 HD
ENDBRANCH  17  19
ENDBRANCH   1  17
TORSDOF 3
