REMARK SMILES O=C1CCC(=O)N1c1ccc(S(=O)(=O)NC[C@H]2CCOC2)cn1
REMARK SMILES IDX 12 1 13 2 14 3 11 4 8 5 9 6 23 7 10 8 22 9 7 10 1 11 2 12
REMARK SMILES IDX 3 13 4 14 5 15 6 16 15 17 16 19 17 20 18 21 21 22 19 23
REMARK SMILES IDX 20 24
REMARK H PARENT 15 18
ROOT
ATOM      1  S   UNL     1       1.191   2.747  -0.008  1.00  0.00     0.242 S 
ATOM      2  O   UNL     1       2.556   3.141   0.480  1.00  0.00    -0.207 OA
ATOM      3  O   UNL     1       0.723   3.753  -1.023  1.00  0.00    -0.207 OA
ENDROOT
BRANCH   1   4
ATOM      4  C   UNL     1       1.286   1.148  -0.741  1.00  0.00     0.100 A 
ATOM      5  C   UNL     1       1.434  -1.374  -1.919  1.00  0.00     0.142 A 
ATOM      6  C   UNL     1       1.347  -1.261  -0.522  1.00  0.00     0.049 A 
ATOM      7  N   UNL     1       1.464  -0.242  -2.677  1.00  0.00    -0.237 NA
ATOM      8  C   UNL     1       1.272   0.004   0.062  1.00  0.00     0.027 A 
ATOM      9  C   UNL     1       1.393   1.000  -2.128  1.00  0.00     0.135 A 
BRANCH   5  10
ATOM     10  N   UNL     1       1.518  -2.660  -2.560  1.00  0.00    -0.234 N 
ATOM     11  O   UNL     1       0.245  -4.005  -1.092  1.00  0.00    -0.274 OA
ATOM     12  C   UNL     1       0.935  -3.886  -2.140  1.00  0.00     0.235 C 
ATOM     13  C   UNL     1       1.161  -5.005  -3.101  1.00  0.00     0.111 C 
ATOM     14  C   UNL     1       1.939  -4.350  -4.258  1.00  0.00     0.111 C 
ATOM     15  C   UNL     1       2.096  -2.930  -3.827  1.00  0.00     0.235 C 
ATOM     16  O   UNL     1       2.698  -2.060  -4.511  1.00  0.00    -0.274 OA
ENDBRANCH   5  10
ENDBRANCH   1   4
BRANCH   1  17
ATOM     17  N   UNL     1       0.087   2.722   1.334  1.00  0.00    -0.211 NA
ATOM     18  H   UNL     1       0.131   3.670   1.774  1.00  0.00     0.141 HD
BRANCH  17  19
ATOM     19  C   UNL     1      -1.279   2.504   0.850  1.00  0.00     0.105 C 
BRANCH  19  20
ATOM     20  C   UNL     1      -2.231   2.259   2.033  1.00  0.00     0.032 C 
ATOM     21  C   UNL     1      -2.443   3.470   2.900  1.00  0.00     0.036 C 
ATOM     22  C   UNL     1      -3.646   1.930   1.590  1.00  0.00     0.165 C 
ATOM     23  C   UNL     1      -3.852   3.265   3.423  1.00  0.00     0.160 C 
ATOM     24  O   UNL     1      -4.546   2.371   2.580  1.00  0.00    -0.381 OA
ENDBRANCH  19  20
ENDBRANCH  17  19
ENDBRANCH   1  17
TORSDOF 5
