REMARK SMILES CCN(Cc1cn(Cc2nccs2)nn1)c1cccc(CO)c1
REMARK SMILES IDX 3 1 2 2 1 3 4 4 5 5 6 6 15 7 7 8 14 9 8 10 9 11 10 12 13 13
REMARK SMILES IDX 11 14 12 15 16 16 17 17 23 18 18 19 20 20 19 21 21 22 22 23
REMARK H PARENT 22 24
ROOT
ATOM      1  N   UNL     1      -0.676  -2.662   0.388  1.00  0.00    -0.366 N 
ENDROOT
BRANCH   1   2
ATOM      2  C   UNL     1      -0.569  -2.476   1.843  1.00  0.00     0.113 C 
ATOM      3  C   UNL     1      -0.545  -0.991   2.199  1.00  0.00     0.027 C 
ENDBRANCH   1   2
BRANCH   1   4
ATOM      4  C   UNL     1       0.392  -3.352  -0.346  1.00  0.00     0.176 C 
BRANCH   4   5
ATOM      5  C   UNL     1       1.506  -2.406  -0.665  1.00  0.00     0.102 A 
ATOM      6  C   UNL     1       1.796  -1.864  -1.897  1.00  0.00     0.137 A 
ATOM      7  N   UNL     1       2.337  -1.864   0.248  1.00  0.00    -0.134 NA
ATOM      8  N   UNL     1       2.810  -1.008  -1.694  1.00  0.00    -0.245 N 
ATOM      9  N   UNL     1       3.116  -1.012  -0.406  1.00  0.00    -0.067 NA
BRANCH   8  10
ATOM     10  C   UNL     1       3.381  -0.093  -2.675  1.00  0.00     0.213 C 
BRANCH  10  11
ATOM     11  C   UNL     1       2.510   1.114  -2.802  1.00  0.00     0.114 A 
ATOM     12  N   UNL     1       2.617   2.199  -2.005  1.00  0.00    -0.248 NA
ATOM     13  S   UNL     1       1.187   1.237  -3.833  1.00  0.00    -0.125 S 
ATOM     14  C   UNL     1       1.648   3.116  -2.265  1.00  0.00     0.123 A 
ATOM     15  C   UNL     1       0.749   2.757  -3.263  1.00  0.00     0.087 A 
ENDBRANCH  10  11
ENDBRANCH   8  10
ENDBRANCH   4   5
ENDBRANCH   1   4
BRANCH   1  16
ATOM     16  C   UNL     1      -1.841  -2.191  -0.315  1.00  0.00     0.037 A 
ATOM     17  C   UNL     1      -3.117  -2.653   0.040  1.00  0.00     0.026 A 
ATOM     18  C   UNL     1      -1.713  -1.247  -1.347  1.00  0.00     0.032 A 
ATOM     19  C   UNL     1      -4.249  -2.181  -0.629  1.00  0.00     0.003 A 
ATOM     20  C   UNL     1      -2.846  -0.779  -2.030  1.00  0.00    -0.021 A 
ATOM     21  C   UNL     1      -4.117  -1.243  -1.657  1.00  0.00     0.006 A 
BRANCH  20  22
ATOM     22  C   UNL     1      -2.703   0.267  -3.100  1.00  0.00     0.191 C 
BRANCH  22  23
ATOM     23  O   UNL     1      -2.746   1.546  -2.530  1.00  0.00    -0.392 OA
ATOM     24  H   UNL     1      -1.858   1.701  -2.112  1.00  0.00     0.211 HD
ENDBRANCH  22  23
ENDBRANCH  20  22
ENDBRANCH   1  16
TORSDOF 8
