REMARK SMILES C[C@@H](C(=O)NC1(Cc2ccccc2)CCC1)n1ccc(C(F)(F)F)n1
REMARK SMILES IDX 3 1 4 2 5 3 2 5 1 6 17 7 18 8 25 9 19 10 20 11 21 12 22 13
REMARK SMILES IDX 23 14 24 15 6 16 14 17 16 18 15 19 7 20 8 21 9 22 13 23
REMARK SMILES IDX 10 24 12 25 11 26
REMARK H PARENT 5 4
ROOT
ATOM      1  C   UNL     1       0.637  -1.111   0.916  1.00  0.00     0.245 C 
ATOM      2  O   UNL     1       1.170  -0.914   2.041  1.00  0.00    -0.273 OA
ATOM      3  N   UNL     1       1.026  -0.316  -0.218  1.00  0.00    -0.348 N 
ATOM      4  H   UNL     1       0.556  -0.493  -1.133  1.00  0.00     0.164 HD
ENDROOT
BRANCH   1   5
ATOM      5  C   UNL     1      -0.413  -2.184   0.782  1.00  0.00     0.193 C 
ATOM      6  C   UNL     1       0.008  -3.253  -0.230  1.00  0.00     0.044 C 
BRANCH   5   7
ATOM      7  N   UNL     1      -1.701  -1.592   0.411  1.00  0.00    -0.260 N 
ATOM      8  C   UNL     1      -2.759  -1.433   1.230  1.00  0.00     0.110 A 
ATOM      9  N   UNL     1      -1.980  -1.095  -0.785  1.00  0.00    -0.168 NA
ATOM     10  C   UNL     1      -3.770  -0.816   0.525  1.00  0.00     0.055 A 
ATOM     11  C   UNL     1      -3.234  -0.606  -0.733  1.00  0.00     0.166 A 
BRANCH  11  12
ATOM     12  C   UNL     1      -3.941   0.002  -1.902  1.00  0.00     0.435 C 
ATOM     13  F   UNL     1      -3.023   0.586  -2.755  1.00  0.00    -0.164 F 
ATOM     14  F   UNL     1      -4.830   0.969  -1.470  1.00  0.00    -0.164 F 
ATOM     15  F   UNL     1      -4.633  -0.983  -2.582  1.00  0.00    -0.164 F 
ENDBRANCH  11  12
ENDBRANCH   5   7
ENDBRANCH   1   5
BRANCH   3  16
ATOM     16  C   UNL     1       2.017   0.769  -0.136  1.00  0.00     0.044 C 
ATOM     17  C   UNL     1       2.587   1.149  -1.513  1.00  0.00     0.029 C 
ATOM     18  C   UNL     1       3.404   0.256   0.276  1.00  0.00     0.029 C 
ATOM     19  C   UNL     1       3.955   0.630  -1.092  1.00  0.00     0.005 C 
BRANCH  16  20
ATOM     20  C   UNL     1       1.526   1.976   0.701  1.00  0.00     0.063 C 
BRANCH  20  21
ATOM     21  C   UNL     1       0.151   2.441   0.285  1.00  0.00    -0.046 A 
ATOM     22  C   UNL     1      -0.008   3.336  -0.787  1.00  0.00     0.004 A 
ATOM     23  C   UNL     1      -0.990   1.972   0.960  1.00  0.00     0.004 A 
ATOM     24  C   UNL     1      -1.285   3.749  -1.179  1.00  0.00     0.000 A 
ATOM     25  C   UNL     1      -2.264   2.398   0.573  1.00  0.00     0.000 A 
ATOM     26  C   UNL     1      -2.412   3.280  -0.500  1.00  0.00     0.000 A 
ENDBRANCH  20  21
ENDBRANCH  16  20
ENDBRANCH   3  16
TORSDOF 6
