REMARK SMILES CN(C)C(=O)[C@H](NC(=O)Cc1csc(N2CCCNC2=O)n1)c1ccccc1
REMARK SMILES IDX 7 1 8 2 9 3 6 5 4 6 2 7 5 8 1 9 3 10 23 11 24 12 28 13 25 14
REMARK SMILES IDX 27 15 26 16 10 17 11 18 12 19 22 20 13 21 14 22 15 23 16 24
REMARK SMILES IDX 20 25 17 26 19 27 21 28 18 29
REMARK H PARENT 7 4 19 30
ROOT
ATOM      1  N   UNL     1      -0.353   1.270   1.452  1.00  0.00    -0.340 N 
ATOM      2  C   UNL     1       0.063   2.619   1.707  1.00  0.00     0.226 C 
ATOM      3  O   UNL     1       0.826   2.880   2.676  1.00  0.00    -0.275 OA
ATOM      4  H   UNL     1      -1.103   1.116   0.740  1.00  0.00     0.164 HD
ENDROOT
BRANCH   1   5
ATOM      5  C   UNL     1       0.351   0.115   2.013  1.00  0.00     0.202 C 
BRANCH   5   6
ATOM      6  C   UNL     1      -0.143  -0.247   3.399  1.00  0.00     0.249 C 
ATOM      7  N   UNL     1      -1.542  -0.344   3.737  1.00  0.00    -0.347 N 
ATOM      8  O   UNL     1       0.715  -0.581   4.261  1.00  0.00    -0.272 OA
ATOM      9  C   UNL     1      -1.979  -1.462   4.576  1.00  0.00     0.146 C 
ATOM     10  C   UNL     1      -2.486   0.725   3.396  1.00  0.00     0.146 C 
ENDBRANCH   5   6
BRANCH   5  11
ATOM     11  C   UNL     1       0.263  -1.069   1.069  1.00  0.00    -0.016 A 
ATOM     12  C   UNL     1      -0.972  -1.682   0.783  1.00  0.00     0.006 A 
ATOM     13  C   UNL     1       1.420  -1.536   0.416  1.00  0.00     0.006 A 
ATOM     14  C   UNL     1      -1.043  -2.745  -0.123  1.00  0.00     0.000 A 
ATOM     15  C   UNL     1       1.343  -2.599  -0.489  1.00  0.00     0.000 A 
ATOM     16  C   UNL     1       0.114  -3.204  -0.757  1.00  0.00     0.000 A 
ENDBRANCH   5  11
ENDBRANCH   1   5
BRANCH   2  17
ATOM     17  C   UNL     1      -0.362   3.715   0.778  1.00  0.00     0.157 C 
BRANCH  17  18
ATOM     18  C   UNL     1       0.313   3.528  -0.547  1.00  0.00     0.063 A 
ATOM     19  C   UNL     1       1.391   4.299  -0.974  1.00  0.00     0.093 A 
ATOM     20  N   UNL     1      -0.018   2.495  -1.368  1.00  0.00    -0.224 NA
ATOM     21  S   UNL     1       1.934   3.658  -2.432  1.00  0.00    -0.105 S 
ATOM     22  C   UNL     1       0.771   2.438  -2.462  1.00  0.00     0.193 A 
BRANCH  22  23
ATOM     23  N   UNL     1       0.695   1.369  -3.427  1.00  0.00    -0.270 N 
ATOM     24  C   UNL     1      -0.025   0.138  -3.070  1.00  0.00     0.132 C 
ATOM     25  C   UNL     1       1.188   1.521  -4.775  1.00  0.00     0.323 C 
ATOM     26  C   UNL     1       0.562  -1.075  -3.794  1.00  0.00     0.043 C 
ATOM     27  N   UNL     1       1.202   0.395  -5.660  1.00  0.00    -0.338 N 
ATOM     28  O   UNL     1       1.605   2.635  -5.191  1.00  0.00    -0.248 OA
ATOM     29  C   UNL     1       0.538  -0.856  -5.307  1.00  0.00     0.119 C 
ATOM     30  H   UNL     1       1.554   0.519  -6.636  1.00  0.00     0.165 HD
ENDBRANCH  22  23
ENDBRANCH  17  18
ENDBRANCH   2  17
TORSDOF 6
