REMARK SMILES O=C1C[C@@H](Nc2nccc(Oc3ccccc3)n2)[C@H]2CCCCN12
REMARK SMILES IDX 6 1 7 2 8 3 9 4 10 5 18 6 5 7 4 9 1 10 2 11 3 12 24 13 23 14
REMARK SMILES IDX 19 15 22 16 20 17 21 18 11 19 12 20 13 21 17 22 14 23 16 24
REMARK SMILES IDX 15 25
REMARK H PARENT 5 8
ROOT
ATOM      1  C   UNL     1       1.902   1.058   0.045  1.00  0.00     0.226 A 
ATOM      2  N   UNL     1       3.220   1.350  -0.118  1.00  0.00    -0.221 NA
ATOM      3  C   UNL     1       3.816   1.242  -1.333  1.00  0.00     0.121 A 
ATOM      4  C   UNL     1       3.075   0.822  -2.436  1.00  0.00     0.089 A 
ATOM      5  C   UNL     1       1.728   0.511  -2.257  1.00  0.00     0.224 A 
ATOM      6  N   UNL     1       1.167   0.644  -1.023  1.00  0.00    -0.177 NA
ENDROOT
BRANCH   1   7
ATOM      7  N   UNL     1       1.304   1.180   1.342  1.00  0.00    -0.349 N 
ATOM      8  H   UNL     1       1.912   1.503   2.126  1.00  0.00     0.164 HD
BRANCH   7   9
ATOM      9  C   UNL     1      -0.135   0.979   1.563  1.00  0.00     0.114 C 
ATOM     10  O   UNL     1      -2.255   0.578   4.426  1.00  0.00    -0.275 OA
ATOM     11  C   UNL     1      -1.548   0.475   3.388  1.00  0.00     0.225 C 
ATOM     12  C   UNL     1      -0.593   1.509   2.938  1.00  0.00     0.127 C 
ATOM     13  N   UNL     1      -1.547  -0.677   2.567  1.00  0.00    -0.338 N 
ATOM     14  C   UNL     1      -2.053  -1.982   2.991  1.00  0.00     0.120 C 
ATOM     15  C   UNL     1      -0.572  -0.515   1.499  1.00  0.00     0.108 C 
ATOM     16  C   UNL     1      -1.506  -3.085   2.077  1.00  0.00     0.022 C 
ATOM     17  C   UNL     1       0.558  -1.541   1.720  1.00  0.00     0.027 C 
ATOM     18  C   UNL     1       0.024  -2.985   1.909  1.00  0.00     0.004 C 
ENDBRANCH   7   9
ENDBRANCH   1   7
BRANCH   5  19
ATOM     19  O   UNL     1       0.966   0.102  -3.358  1.00  0.00    -0.439 OA
BRANCH  19  20
ATOM     20  C   UNL     1      -0.262  -0.570  -3.281  1.00  0.00     0.129 A 
ATOM     21  C   UNL     1      -1.214  -0.349  -4.285  1.00  0.00     0.047 A 
ATOM     22  C   UNL     1      -0.546  -1.490  -2.252  1.00  0.00     0.047 A 
ATOM     23  C   UNL     1      -2.447  -1.008  -4.248  1.00  0.00     0.004 A 
ATOM     24  C   UNL     1      -1.780  -2.147  -2.219  1.00  0.00     0.004 A 
ATOM     25  C   UNL     1      -2.732  -1.902  -3.212  1.00  0.00     0.000 A 
ENDBRANCH  19  20
ENDBRANCH   5  19
TORSDOF 4
