REMARK SMILES O=C(Nc1cccc(-c2[nH]nc3c2COCC3)c1)c1cncc(O)c1
REMARK SMILES IDX 1 1 2 2 3 3 19 5 20 6 25 7 21 8 23 9 22 10 24 11 4 13 5 14
REMARK SMILES IDX 18 15 6 16 8 17 7 18 9 19 10 20 13 21 11 22 14 23 12 24
REMARK SMILES IDX 15 25 17 26 16 27
REMARK H PARENT 3 4 24 12 10 28
ROOT
ATOM      1  O   UNL     1      -1.022  -3.561   2.139  1.00  0.00    -0.269 OA
ATOM      2  C   UNL     1      -1.201  -2.397   2.590  1.00  0.00     0.257 C 
ATOM      3  N   UNL     1      -0.661  -1.268   1.882  1.00  0.00    -0.322 N 
ATOM      4  H   UNL     1      -1.165  -0.355   1.956  1.00  0.00     0.170 HD
ENDROOT
BRANCH   2   5
ATOM      5  C   UNL     1      -2.011  -2.208   3.818  1.00  0.00     0.062 A 
ATOM      6  C   UNL     1      -2.854  -3.233   4.281  1.00  0.00     0.125 A 
ATOM      7  C   UNL     1      -1.942  -1.016   4.561  1.00  0.00     0.063 A 
ATOM      8  N   UNL     1      -3.591  -3.060   5.410  1.00  0.00    -0.260 NA
ATOM      9  C   UNL     1      -2.711  -0.864   5.721  1.00  0.00     0.134 A 
ATOM     10  C   UNL     1      -3.540  -1.909   6.130  1.00  0.00     0.157 A 
BRANCH   9  11
ATOM     11  O   UNL     1      -2.655   0.311   6.468  1.00  0.00    -0.506 OA
ATOM     12  H   UNL     1      -2.062   1.085   6.194  1.00  0.00     0.293 HD
ENDBRANCH   9  11
ENDBRANCH   2   5
BRANCH   3  13
ATOM     13  C   UNL     1       0.434  -1.357   0.954  1.00  0.00     0.042 A 
ATOM     14  C   UNL     1       1.467  -2.295   1.130  1.00  0.00     0.026 A 
ATOM     15  C   UNL     1       0.510  -0.448  -0.113  1.00  0.00     0.036 A 
ATOM     16  C   UNL     1       2.540  -2.336   0.238  1.00  0.00     0.003 A 
ATOM     17  C   UNL     1       1.578  -0.497  -1.024  1.00  0.00     0.002 A 
ATOM     18  C   UNL     1       2.598  -1.442  -0.834  1.00  0.00     0.010 A 
BRANCH  17  19
ATOM     19  C   UNL     1       1.655   0.453  -2.152  1.00  0.00     0.071 A 
ATOM     20  N   UNL     1       2.799   1.027  -2.586  1.00  0.00    -0.277 N 
ATOM     21  C   UNL     1       0.633   0.850  -2.997  1.00  0.00     0.027 A 
ATOM     22  N   UNL     1       2.559   1.746  -3.675  1.00  0.00    -0.180 NA
ATOM     23  C   UNL     1      -0.764   0.341  -3.200  1.00  0.00     0.200 C 
ATOM     24  C   UNL     1       1.245   1.628  -3.938  1.00  0.00     0.071 A 
ATOM     25  O   UNL     1      -1.483   1.204  -4.076  1.00  0.00    -0.376 OA
ATOM     26  C   UNL     1       0.514   2.178  -5.116  1.00  0.00     0.087 C 
ATOM     27  C   UNL     1      -0.789   1.373  -5.309  1.00  0.00     0.167 C 
ATOM     28  H   UNL     1       3.745   0.921  -2.158  1.00  0.00     0.190 HD
ENDBRANCH  17  19
ENDBRANCH   3  13
TORSDOF 4
