REMARK SMILES O=C(c1ccc(-n2cnc3ccccc32)cc1)N1CCC[C@](O)(CO)C1
REMARK SMILES IDX 18 1 19 2 20 3 21 4 22 5 26 6 2 7 1 8 3 9 4 10 17 11 5 12
REMARK SMILES IDX 16 13 6 14 7 15 8 16 15 17 9 18 14 19 10 20 13 21 11 22
REMARK SMILES IDX 12 23 23 24 24 26 25 27
REMARK H PARENT 23 25 25 28
ROOT
ATOM      1  N   UNL     1      -1.905  -2.150   1.158  1.00  0.00    -0.336 N 
ATOM      2  C   UNL     1      -1.081  -2.895   0.191  1.00  0.00     0.120 C 
ATOM      3  C   UNL     1      -1.643  -4.302  -0.059  1.00  0.00     0.025 C 
ATOM      4  C   UNL     1      -2.030  -4.964   1.271  1.00  0.00     0.041 C 
ATOM      5  C   UNL     1      -3.063  -4.132   2.102  1.00  0.00     0.105 C 
ATOM      6  C   UNL     1      -3.215  -2.689   1.542  1.00  0.00     0.157 C 
ENDROOT
BRANCH   1   7
ATOM      7  C   UNL     1      -1.336  -1.043   1.883  1.00  0.00     0.253 C 
ATOM      8  O   UNL     1      -1.582  -0.913   3.113  1.00  0.00    -0.269 OA
BRANCH   7   9
ATOM      9  C   UNL     1      -0.450  -0.061   1.220  1.00  0.00     0.040 A 
ATOM     10  C   UNL     1      -0.695   0.346  -0.101  1.00  0.00     0.016 A 
ATOM     11  C   UNL     1       0.622   0.510   1.924  1.00  0.00     0.016 A 
ATOM     12  C   UNL     1       0.139   1.282  -0.719  1.00  0.00     0.027 A 
ATOM     13  C   UNL     1       1.456   1.446   1.305  1.00  0.00     0.027 A 
ATOM     14  C   UNL     1       1.231   1.827  -0.026  1.00  0.00     0.047 A 
BRANCH  14  15
ATOM     15  N   UNL     1       2.084   2.801  -0.652  1.00  0.00    -0.299 N 
ATOM     16  C   UNL     1       2.533   3.956  -0.100  1.00  0.00     0.205 A 
ATOM     17  C   UNL     1       2.610   2.797  -1.890  1.00  0.00     0.073 A 
ATOM     18  N   UNL     1       3.311   4.687  -0.939  1.00  0.00    -0.236 NA
ATOM     19  C   UNL     1       2.539   1.817  -2.885  1.00  0.00     0.029 A 
ATOM     20  C   UNL     1       3.344   3.936  -2.055  1.00  0.00     0.089 A 
ATOM     21  C   UNL     1       3.222   2.060  -4.091  1.00  0.00     0.002 A 
ATOM     22  C   UNL     1       4.034   4.205  -3.235  1.00  0.00     0.030 A 
ATOM     23  C   UNL     1       3.962   3.251  -4.267  1.00  0.00     0.002 A 
ENDBRANCH  14  15
ENDBRANCH   7   9
ENDBRANCH   1   7
BRANCH   5  24
ATOM     24  O   UNL     1      -2.581  -4.061   3.426  1.00  0.00    -0.386 OA
ATOM     25  H   UNL     1      -3.248  -3.572   3.976  1.00  0.00     0.211 HD
ENDBRANCH   5  24
BRANCH   5  26
ATOM     26  C   UNL     1      -4.440  -4.840   2.109  1.00  0.00     0.193 C 
BRANCH  26  27
ATOM     27  O   UNL     1      -4.909  -5.032   0.801  1.00  0.00    -0.393 OA
ATOM     28  H   UNL     1      -5.782  -5.496   0.886  1.00  0.00     0.210 HD
ENDBRANCH  26  27
ENDBRANCH   5  26
TORSDOF 6
