REMARK SMILES O=C(c1ccc2cc(-c3ccccc3)[nH]c2c1)N1CC(NC2CCOCC2)C1
REMARK SMILES IDX 1 1 2 2 18 3 19 4 20 5 28 6 3 7 4 8 17 9 5 10 16 11 6 12
REMARK SMILES IDX 15 13 7 14 8 15 9 17 10 18 14 19 11 20 13 21 12 22 21 23
REMARK SMILES IDX 22 25 23 26 27 27 24 28 26 29 25 30
REMARK H PARENT 15 16 21 24
ROOT
ATOM      1  O   UNL     1      -2.139  -3.266  -1.285  1.00  0.00    -0.269 OA
ATOM      2  C   UNL     1      -1.578  -2.163  -1.047  1.00  0.00     0.254 C 
ATOM      3  N   UNL     1      -0.224  -1.974  -1.465  1.00  0.00    -0.335 N 
ATOM      4  C   UNL     1       0.881  -1.013  -1.273  1.00  0.00     0.140 C 
ATOM      5  C   UNL     1       1.930  -1.835  -1.955  1.00  0.00     0.093 C 
ATOM      6  C   UNL     1       0.796  -2.794  -2.144  1.00  0.00     0.140 C 
ENDROOT
BRANCH   2   7
ATOM      7  C   UNL     1      -2.313  -1.119  -0.302  1.00  0.00     0.042 A 
ATOM      8  C   UNL     1      -3.264  -1.498   0.684  1.00  0.00     0.014 A 
ATOM      9  C   UNL     1      -2.104   0.252  -0.574  1.00  0.00     0.040 A 
ATOM     10  C   UNL     1      -3.978  -0.526   1.407  1.00  0.00     0.011 A 
ATOM     11  C   UNL     1      -2.830   1.188   0.161  1.00  0.00     0.047 A 
ATOM     12  C   UNL     1      -3.729   0.812   1.119  1.00  0.00     0.000 A 
ATOM     13  N   UNL     1      -2.777   2.526   0.052  1.00  0.00    -0.355 N 
ATOM     14  C   UNL     1      -4.273   1.958   1.652  1.00  0.00     0.037 A 
ATOM     15  C   UNL     1      -3.659   3.009   0.964  1.00  0.00     0.046 A 
ATOM     16  H   UNL     1      -2.159   3.068  -0.592  1.00  0.00     0.167 HD
BRANCH  15  17
ATOM     17  C   UNL     1      -3.920   4.453   1.185  1.00  0.00    -0.002 A 
ATOM     18  C   UNL     1      -3.618   5.397   0.185  1.00  0.00     0.010 A 
ATOM     19  C   UNL     1      -4.477   4.904   2.398  1.00  0.00     0.010 A 
ATOM     20  C   UNL     1      -3.866   6.757   0.396  1.00  0.00     0.001 A 
ATOM     21  C   UNL     1      -4.722   6.266   2.603  1.00  0.00     0.001 A 
ATOM     22  C   UNL     1      -4.416   7.191   1.604  1.00  0.00     0.000 A 
ENDBRANCH  15  17
ENDBRANCH   2   7
BRANCH   5  23
ATOM     23  N   UNL     1       2.946  -2.344  -1.023  1.00  0.00    -0.308 NA
ATOM     24  H   UNL     1       3.362  -3.212  -1.433  1.00  0.00     0.123 HD
BRANCH  23  25
ATOM     25  C   UNL     1       4.001  -1.342  -0.766  1.00  0.00     0.058 C 
ATOM     26  C   UNL     1       4.603  -1.572   0.628  1.00  0.00     0.047 C 
ATOM     27  C   UNL     1       5.115  -1.365  -1.838  1.00  0.00     0.047 C 
ATOM     28  C   UNL     1       5.572  -2.760   0.617  1.00  0.00     0.161 C 
ATOM     29  C   UNL     1       6.080  -2.544  -1.632  1.00  0.00     0.161 C 
ATOM     30  O   UNL     1       6.610  -2.549  -0.321  1.00  0.00    -0.381 OA
ENDBRANCH  23  25
ENDBRANCH   5  23
TORSDOF 4
