REMARK SMILES O=C(c1ccc2cc(-c3ccccc3)[nH]c2c1)N1CC(NC2CCOCC2)C1
REMARK SMILES IDX 1 1 2 2 18 3 19 4 20 5 28 6 3 7 4 8 17 9 5 10 16 11 6 12
REMARK SMILES IDX 15 13 7 14 8 15 9 17 10 18 14 19 11 20 13 21 12 22 21 23
REMARK SMILES IDX 22 25 23 26 27 27 24 28 26 29 25 30
REMARK H PARENT 15 16 21 24
ROOT
ATOM      1  O   UNL     1       1.226  -4.296  -1.459  1.00  0.00    -0.269 OA
ATOM      2  C   UNL     1       0.597  -3.207  -1.385  1.00  0.00     0.254 C 
ATOM      3  N   UNL     1       0.215  -2.713  -0.099  1.00  0.00    -0.335 N 
ATOM      4  C   UNL     1       0.391  -3.149   1.299  1.00  0.00     0.140 C 
ATOM      5  C   UNL     1      -0.535  -2.133   1.901  1.00  0.00     0.093 C 
ATOM      6  C   UNL     1      -0.692  -1.699   0.477  1.00  0.00     0.140 C 
ENDROOT
BRANCH   2   7
ATOM      7  C   UNL     1       0.229  -2.492  -2.625  1.00  0.00     0.042 A 
ATOM      8  C   UNL     1      -0.093  -3.230  -3.794  1.00  0.00     0.014 A 
ATOM      9  C   UNL     1       0.220  -1.079  -2.669  1.00  0.00     0.040 A 
ATOM     10  C   UNL     1      -0.450  -2.572  -4.985  1.00  0.00     0.011 A 
ATOM     11  C   UNL     1      -0.135  -0.460  -3.866  1.00  0.00     0.047 A 
ATOM     12  C   UNL     1      -0.464  -1.181  -4.980  1.00  0.00     0.000 A 
ATOM     13  N   UNL     1      -0.205   0.859  -4.110  1.00  0.00    -0.355 N 
ATOM     14  C   UNL     1      -0.763  -0.285  -5.982  1.00  0.00     0.037 A 
ATOM     15  C   UNL     1      -0.591   0.977  -5.406  1.00  0.00     0.046 A 
ATOM     16  H   UNL     1      -0.021   1.625  -3.425  1.00  0.00     0.167 HD
BRANCH  15  17
ATOM     17  C   UNL     1      -0.798   2.274  -6.097  1.00  0.00    -0.002 A 
ATOM     18  C   UNL     1      -1.619   2.356  -7.238  1.00  0.00     0.010 A 
ATOM     19  C   UNL     1      -0.177   3.445  -5.623  1.00  0.00     0.010 A 
ATOM     20  C   UNL     1      -1.815   3.581  -7.884  1.00  0.00     0.001 A 
ATOM     21  C   UNL     1      -0.374   4.666  -6.274  1.00  0.00     0.001 A 
ATOM     22  C   UNL     1      -1.193   4.734  -7.403  1.00  0.00     0.000 A 
ENDBRANCH  15  17
ENDBRANCH   2   7
BRANCH   5  23
ATOM     23  N   UNL     1       0.125  -1.102   2.725  1.00  0.00    -0.308 NA
ATOM     24  H   UNL     1       1.115  -0.933   2.424  1.00  0.00     0.123 HD
BRANCH  23  25
ATOM     25  C   UNL     1       0.069  -1.418   4.163  1.00  0.00     0.058 C 
ATOM     26  C   UNL     1       1.016  -2.584   4.531  1.00  0.00     0.047 C 
ATOM     27  C   UNL     1       0.395  -0.155   4.989  1.00  0.00     0.047 C 
ATOM     28  C   UNL     1       1.419  -2.491   6.010  1.00  0.00     0.161 C 
ATOM     29  C   UNL     1       1.841  -0.190   5.507  1.00  0.00     0.161 C 
ATOM     30  O   UNL     1       2.117  -1.298   6.356  1.00  0.00    -0.381 OA
ENDBRANCH  23  25
ENDBRANCH   5  23
TORSDOF 4
