REMARK SMILES Cn1nc(-c2ccc(F)cc2)cc1C(=O)N1CC[C@](C#N)(C(N)=O)C1
REMARK SMILES IDX 14 1 15 2 13 3 2 4 3 5 4 6 12 7 1 8 5 9 6 10 11 11 7 12
REMARK SMILES IDX 10 13 8 14 9 15 16 16 17 17 25 18 18 19 19 20 20 21 21 22
REMARK SMILES IDX 22 23 23 24 24 25
REMARK H PARENT 23 26 23 27
ROOT
ATOM      1  C   UNL     1      -0.628   1.024  -0.499  1.00  0.00     0.272 C 
ATOM      2  O   UNL     1      -0.958   2.156  -0.942  1.00  0.00    -0.267 OA
ENDROOT
BRANCH   1   3
ATOM      3  C   UNL     1      -1.264  -0.175  -1.069  1.00  0.00     0.126 A 
ATOM      4  N   UNL     1      -1.907  -1.140  -0.376  1.00  0.00    -0.262 N 
ATOM      5  N   UNL     1      -2.367  -2.051  -1.218  1.00  0.00    -0.172 NA
ATOM      6  C   UNL     1      -2.025  -1.673  -2.469  1.00  0.00     0.093 A 
ATOM      7  C   UNL     1      -1.331  -0.471  -2.414  1.00  0.00     0.064 A 
ATOM      8  C   UNL     1      -2.172  -1.189   1.059  1.00  0.00     0.174 C 
BRANCH   6   9
ATOM      9  C   UNL     1      -2.371  -2.449  -3.684  1.00  0.00     0.002 A 
ATOM     10  C   UNL     1      -1.988  -2.010  -4.967  1.00  0.00     0.013 A 
ATOM     11  C   UNL     1      -3.096  -3.650  -3.567  1.00  0.00     0.013 A 
ATOM     12  C   UNL     1      -2.324  -2.757  -6.101  1.00  0.00     0.040 A 
ATOM     13  C   UNL     1      -3.428  -4.393  -4.704  1.00  0.00     0.040 A 
ATOM     14  C   UNL     1      -3.043  -3.947  -5.970  1.00  0.00     0.123 A 
ATOM     15  F   UNL     1      -3.366  -4.669  -7.071  1.00  0.00    -0.207 F 
ENDBRANCH   6   9
ENDBRANCH   1   3
BRANCH   1  16
ATOM     16  N   UNL     1       0.384   0.920   0.516  1.00  0.00    -0.335 N 
ATOM     17  C   UNL     1       0.832   2.062   1.295  1.00  0.00     0.122 C 
ATOM     18  C   UNL     1       1.205  -0.264   0.719  1.00  0.00     0.152 C 
ATOM     19  C   UNL     1       1.938   1.533   2.200  1.00  0.00     0.056 C 
ATOM     20  C   UNL     1       2.400   0.202   1.573  1.00  0.00     0.154 C 
ATOM     21  C   UNL     1       2.682  -0.795   2.631  1.00  0.00     0.081 C 
ATOM     22  N   UNL     1       2.902  -1.574   3.458  1.00  0.00    -0.197 NA
BRANCH  20  23
ATOM     23  C   UNL     1       3.643   0.429   0.718  1.00  0.00     0.239 C 
ATOM     24  N   UNL     1       3.565   1.124  -0.530  1.00  0.00    -0.368 N 
ATOM     25  O   UNL     1       4.775   0.053   1.131  1.00  0.00    -0.273 OA
ATOM     26  H   UNL     1       4.431   1.287  -1.091  1.00  0.00     0.159 HD
ATOM     27  H   UNL     1       2.660   1.482  -0.903  1.00  0.00     0.159 HD
ENDBRANCH  20  23
ENDBRANCH   1  16
TORSDOF 4
