REMARK SMILES Cc1nc(N2CC[C@H](CO)C2)c2cnn(-c3ccccc3)c2n1
REMARK SMILES IDX 5 1 6 2 7 3 8 4 11 5 4 6 2 7 3 8 23 9 22 10 12 11 15 12
REMARK SMILES IDX 13 13 14 14 1 15 16 16 17 17 21 18 18 19 20 20 19 21 9 22
REMARK SMILES IDX 10 23
REMARK H PARENT 10 24
ROOT
ATOM      1  N   UNL     1       1.351  -0.440  -1.630  1.00  0.00    -0.356 N 
ATOM      2  C   UNL     1       0.525  -0.109  -2.781  1.00  0.00     0.118 C 
ATOM      3  C   UNL     1       1.140  -0.853  -3.959  1.00  0.00     0.029 C 
ATOM      4  C   UNL     1       2.575  -1.170  -3.531  1.00  0.00     0.036 C 
ATOM      5  C   UNL     1       2.535  -1.198  -2.004  1.00  0.00     0.124 C 
ENDROOT
BRANCH   1   6
ATOM      6  C   UNL     1       1.025  -0.166  -0.251  1.00  0.00     0.143 A 
ATOM      7  C   UNL     1       1.497  -0.555   2.069  1.00  0.00     0.130 A 
ATOM      8  N   UNL     1       1.762  -0.757   0.740  1.00  0.00    -0.215 NA
ATOM      9  N   UNL     1       0.489   0.282   2.449  1.00  0.00    -0.213 NA
ATOM     10  C   UNL     1      -0.239   0.894   1.485  1.00  0.00     0.168 A 
ATOM     11  C   UNL     1      -0.013   0.687   0.156  1.00  0.00     0.082 A 
ATOM     12  N   UNL     1      -1.279   1.731   1.659  1.00  0.00    -0.215 N 
ATOM     13  C   UNL     1      -0.978   1.450  -0.483  1.00  0.00     0.150 A 
ATOM     14  N   UNL     1      -1.736   2.066   0.457  1.00  0.00    -0.174 NA
ATOM     15  C   UNL     1       2.352  -1.207   3.103  1.00  0.00     0.090 C 
BRANCH  12  16
ATOM     16  C   UNL     1      -1.861   2.194   2.892  1.00  0.00     0.067 A 
ATOM     17  C   UNL     1      -1.075   2.381   4.045  1.00  0.00     0.028 A 
ATOM     18  C   UNL     1      -3.232   2.502   2.945  1.00  0.00     0.028 A 
ATOM     19  C   UNL     1      -1.658   2.841   5.230  1.00  0.00     0.002 A 
ATOM     20  C   UNL     1      -3.810   2.960   4.133  1.00  0.00     0.002 A 
ATOM     21  C   UNL     1      -3.024   3.127   5.275  1.00  0.00     0.000 A 
ENDBRANCH  12  16
ENDBRANCH   1   6
BRANCH   4  22
ATOM     22  C   UNL     1       3.106  -2.482  -4.132  1.00  0.00     0.161 C 
BRANCH  22  23
ATOM     23  O   UNL     1       3.135  -2.407  -5.532  1.00  0.00    -0.396 OA
ATOM     24  H   UNL     1       3.912  -1.836  -5.769  1.00  0.00     0.210 HD
ENDBRANCH  22  23
ENDBRANCH   4  22
TORSDOF 4
