REMARK SMILES O=C(Nc1cccc(-c2[nH]nc3c2COCC3)c1)c1cncc(O)c1
REMARK SMILES IDX 1 1 2 2 3 3 19 5 20 6 25 7 21 8 23 9 22 10 24 11 4 13 5 14
REMARK SMILES IDX 18 15 6 16 8 17 7 18 9 19 10 20 13 21 11 22 14 23 12 24
REMARK SMILES IDX 15 25 17 26 16 27
REMARK H PARENT 3 4 24 12 10 28
ROOT
ATOM      1  O   UNL     1      -2.057   1.139   1.270  1.00  0.00    -0.269 OA
ATOM      2  C   UNL     1      -2.523   0.233   0.527  1.00  0.00     0.257 C 
ATOM      3  N   UNL     1      -2.243   0.254  -0.883  1.00  0.00    -0.322 N 
ATOM      4  H   UNL     1      -2.959  -0.145  -1.532  1.00  0.00     0.170 HD
ENDROOT
BRANCH   2   5
ATOM      5  C   UNL     1      -3.395  -0.814   1.113  1.00  0.00     0.062 A 
ATOM      6  C   UNL     1      -3.977  -0.630   2.380  1.00  0.00     0.125 A 
ATOM      7  C   UNL     1      -3.644  -2.019   0.435  1.00  0.00     0.063 A 
ATOM      8  N   UNL     1      -4.771  -1.594   2.918  1.00  0.00    -0.260 NA
ATOM      9  C   UNL     1      -4.462  -2.995   1.010  1.00  0.00     0.134 A 
ATOM     10  C   UNL     1      -5.026  -2.759   2.268  1.00  0.00     0.157 A 
BRANCH   9  11
ATOM     11  O   UNL     1      -4.703  -4.187   0.330  1.00  0.00    -0.506 OA
ATOM     12  H   UNL     1      -5.292  -4.911   0.726  1.00  0.00     0.293 HD
ENDBRANCH   9  11
ENDBRANCH   2   5
BRANCH   3  13
ATOM     13  C   UNL     1      -1.110   0.924  -1.461  1.00  0.00     0.042 A 
ATOM     14  C   UNL     1      -1.206   1.441  -2.761  1.00  0.00     0.026 A 
ATOM     15  C   UNL     1       0.112   1.028  -0.770  1.00  0.00     0.036 A 
ATOM     16  C   UNL     1      -0.115   2.086  -3.347  1.00  0.00     0.003 A 
ATOM     17  C   UNL     1       1.218   1.666  -1.359  1.00  0.00     0.002 A 
ATOM     18  C   UNL     1       1.088   2.206  -2.649  1.00  0.00     0.010 A 
BRANCH  17  19
ATOM     19  C   UNL     1       2.504   1.785  -0.634  1.00  0.00     0.071 A 
ATOM     20  N   UNL     1       3.358   2.827  -0.759  1.00  0.00    -0.277 N 
ATOM     21  C   UNL     1       3.076   0.879   0.241  1.00  0.00     0.027 A 
ATOM     22  N   UNL     1       4.429   2.630  -0.001  1.00  0.00    -0.180 NA
ATOM     23  C   UNL     1       2.654  -0.467   0.749  1.00  0.00     0.200 C 
ATOM     24  C   UNL     1       4.254   1.451   0.625  1.00  0.00     0.071 A 
ATOM     25  O   UNL     1       3.786  -1.208   1.193  1.00  0.00    -0.376 OA
ATOM     26  C   UNL     1       5.233   0.749   1.505  1.00  0.00     0.087 C 
ATOM     27  C   UNL     1       4.535  -0.468   2.153  1.00  0.00     0.167 C 
ATOM     28  H   UNL     1       3.217   3.676  -1.349  1.00  0.00     0.190 HD
ENDBRANCH  17  19
ENDBRANCH   3  13
TORSDOF 4
