REMARK SMILES CSc1cc(C)ccc1C(=O)Nc1[nH]nnc1C(=O)N1CCCC1
REMARK SMILES IDX 3 1 4 2 5 3 6 4 7 5 8 6 9 7 2 8 1 9 10 10 11 11 12 12 13 14
REMARK SMILES IDX 14 15 17 16 15 17 16 18 18 20 19 21 20 22 21 23 24 24 22 25
REMARK SMILES IDX 23 26
REMARK H PARENT 12 13 14 19
ROOT
ATOM      1  C   UNL     1       2.565   1.266   0.468  1.00  0.00     0.020 A 
ATOM      2  C   UNL     1       3.567   1.595   1.389  1.00  0.00     0.019 A 
ATOM      3  C   UNL     1       3.559   1.050   2.681  1.00  0.00    -0.050 A 
ATOM      4  C   UNL     1       4.611   1.444   3.674  1.00  0.00     0.044 C 
ATOM      5  C   UNL     1       2.514   0.197   3.061  1.00  0.00     0.004 A 
ATOM      6  C   UNL     1       1.514  -0.142   2.147  1.00  0.00     0.015 A 
ATOM      7  C   UNL     1       1.538   0.369   0.840  1.00  0.00     0.053 A 
ENDROOT
BRANCH   1   8
ATOM      8  S   UNL     1       2.594   2.065  -1.147  1.00  0.00    -0.129 SA
ATOM      9  C   UNL     1       1.564   3.465  -0.609  1.00  0.00     0.091 C 
ENDBRANCH   1   8
BRANCH   7  10
ATOM     10  C   UNL     1       0.467  -0.027  -0.094  1.00  0.00     0.258 C 
ATOM     11  O   UNL     1      -0.736   0.120   0.254  1.00  0.00    -0.269 OA
ATOM     12  N   UNL     1       0.788  -0.590  -1.376  1.00  0.00    -0.305 N 
ATOM     13  H   UNL     1       1.783  -0.600  -1.692  1.00  0.00     0.171 HD
BRANCH  12  14
ATOM     14  C   UNL     1      -0.211  -0.981  -2.325  1.00  0.00     0.162 A 
ATOM     15  N   UNL     1      -0.195  -0.629  -3.618  1.00  0.00    -0.242 N 
ATOM     16  C   UNL     1      -1.329  -1.768  -2.119  1.00  0.00     0.194 A 
ATOM     17  N   UNL     1      -1.264  -1.160  -4.187  1.00  0.00    -0.067 NA
ATOM     18  N   UNL     1      -1.966  -1.861  -3.305  1.00  0.00    -0.123 NA
ATOM     19  H   UNL     1       0.512  -0.035  -4.104  1.00  0.00     0.194 HD
BRANCH  16  20
ATOM     20  C   UNL     1      -1.699  -2.522  -0.901  1.00  0.00     0.278 C 
ATOM     21  O   UNL     1      -0.799  -2.794  -0.061  1.00  0.00    -0.267 OA
ATOM     22  N   UNL     1      -3.050  -2.957  -0.647  1.00  0.00    -0.337 N 
ATOM     23  C   UNL     1      -4.189  -2.689  -1.510  1.00  0.00     0.120 C 
ATOM     24  C   UNL     1      -3.432  -3.612   0.592  1.00  0.00     0.120 C 
ATOM     25  C   UNL     1      -5.391  -3.325  -0.823  1.00  0.00     0.023 C 
ATOM     26  C   UNL     1      -4.954  -3.616   0.609  1.00  0.00     0.023 C 
ENDBRANCH  16  20
ENDBRANCH  12  14
ENDBRANCH   7  10
TORSDOF 4
