REMARK SMILES Cc1ccc(SCC(=O)N2CCC3(CC2)C[C@@H](O)CCO3)cc1
REMARK SMILES IDX 7 1 6 2 5 3 2 4 3 5 23 6 4 7 22 8 1 9 8 10 9 11 10 12 11 13
REMARK SMILES IDX 15 14 12 15 14 16 13 17 16 18 21 19 17 20 20 21 19 22 18 23
REMARK H PARENT 18 24
ROOT
ATOM      1  C   UNL     1       2.658   1.054   1.171  1.00  0.00     0.175 C 
ENDROOT
BRANCH   1   2
ATOM      2  S   UNL     1       2.556   2.857   0.892  1.00  0.00    -0.116 SA
BRANCH   2   3
ATOM      3  C   UNL     1       0.765   2.898   0.787  1.00  0.00     0.008 A 
ATOM      4  C   UNL     1      -2.038   2.877   0.627  1.00  0.00    -0.051 A 
ATOM      5  C   UNL     1      -1.262   2.789  -0.539  1.00  0.00     0.004 A 
ATOM      6  C   UNL     1      -1.401   3.016   1.871  1.00  0.00     0.004 A 
ATOM      7  C   UNL     1       0.133   2.801  -0.459  1.00  0.00     0.015 A 
ATOM      8  C   UNL     1      -0.004   3.023   1.949  1.00  0.00     0.015 A 
ATOM      9  C   UNL     1      -3.535   2.892   0.539  1.00  0.00     0.044 C 
ENDBRANCH   2   3
ENDBRANCH   1   2
BRANCH   1  10
ATOM     10  C   UNL     1       2.358   0.306  -0.100  1.00  0.00     0.232 C 
ATOM     11  O   UNL     1       3.245   0.280  -0.995  1.00  0.00    -0.274 OA
ATOM     12  N   UNL     1       1.081  -0.329  -0.337  1.00  0.00    -0.342 N 
ATOM     13  C   UNL     1       0.207  -0.710   0.784  1.00  0.00     0.122 C 
ATOM     14  C   UNL     1       0.607  -0.551  -1.710  1.00  0.00     0.122 C 
ATOM     15  C   UNL     1      -0.953  -1.606   0.322  1.00  0.00     0.057 C 
ATOM     16  C   UNL     1       0.190  -2.017  -1.922  1.00  0.00     0.057 C 
ATOM     17  C   UNL     1      -0.476  -2.694  -0.677  1.00  0.00     0.074 C 
ATOM     18  C   UNL     1       0.568  -3.642   0.015  1.00  0.00     0.067 C 
ATOM     19  O   UNL     1      -1.622  -3.401  -1.163  1.00  0.00    -0.375 OA
ATOM     20  C   UNL     1       0.508  -5.042  -0.608  1.00  0.00     0.119 C 
ATOM     21  C   UNL     1      -1.971  -4.515  -0.363  1.00  0.00     0.163 C 
ATOM     22  C   UNL     1      -0.910  -5.622  -0.467  1.00  0.00     0.060 C 
BRANCH  20  23
ATOM     23  O   UNL     1       1.429  -5.894   0.022  1.00  0.00    -0.393 OA
ATOM     24  H   UNL     1       2.329  -5.636  -0.310  1.00  0.00     0.210 HD
ENDBRANCH  20  23
ENDBRANCH   1  10
TORSDOF 4
