REMARK SMILES N#Cc1ccsc1S(=O)(=O)Nc1cccc2c1NC(=O)C2
REMARK SMILES IDX 11 1 8 3 9 4 10 5 7 6 1 7 2 8 3 9 4 10 5 11 6 12 12 13 13 14
REMARK SMILES IDX 17 15 14 16 18 17 16 18 15 19 19 20 21 21 20 22
REMARK H PARENT 11 2 18 23
ROOT
ATOM      1  N   UNL     1       1.093   0.756  -0.486  1.00  0.00    -0.277 N 
ATOM      2  H   UNL     1       0.726   1.374   0.270  1.00  0.00     0.180 HD
ENDROOT
BRANCH   1   3
ATOM      3  S   UNL     1       1.517   1.517  -1.986  1.00  0.00     0.272 S 
ATOM      4  O   UNL     1       1.026   2.938  -1.982  1.00  0.00    -0.200 OA
ATOM      5  O   UNL     1       3.012   1.514  -2.141  1.00  0.00    -0.200 OA
BRANCH   3   6
ATOM      6  C   UNL     1       0.765   0.664  -3.327  1.00  0.00     0.158 A 
ATOM      7  N   UNL     1      -2.325   0.660  -1.548  1.00  0.00    -0.192 NA
ATOM      8  C   UNL     1      -1.539   0.476  -2.377  1.00  0.00     0.101 C 
ATOM      9  C   UNL     1      -0.559   0.247  -3.406  1.00  0.00     0.083 A 
ATOM     10  C   UNL     1      -0.855  -0.435  -4.594  1.00  0.00     0.032 A 
ATOM     11  C   UNL     1       0.235  -0.556  -5.448  1.00  0.00     0.068 A 
ATOM     12  S   UNL     1       1.563   0.183  -4.724  1.00  0.00    -0.129 S 
ENDBRANCH   3   6
ENDBRANCH   1   3
BRANCH   1  13
ATOM     13  C   UNL     1       1.067  -0.671  -0.318  1.00  0.00     0.073 A 
ATOM     14  C   UNL     1       1.884  -1.525  -1.092  1.00  0.00     0.029 A 
ATOM     15  C   UNL     1       0.226  -1.267   0.635  1.00  0.00     0.069 A 
ATOM     16  C   UNL     1       1.838  -2.920  -0.913  1.00  0.00     0.003 A 
ATOM     17  N   UNL     1      -0.694  -0.609   1.492  1.00  0.00    -0.324 N 
ATOM     18  C   UNL     1       0.183  -2.637   0.806  1.00  0.00    -0.013 A 
ATOM     19  C   UNL     1       0.980  -3.486   0.042  1.00  0.00     0.006 A 
ATOM     20  C   UNL     1      -1.322  -1.655   2.223  1.00  0.00     0.228 C 
ATOM     21  C   UNL     1      -0.815  -3.015   1.853  1.00  0.00     0.138 C 
ATOM     22  O   UNL     1      -2.216  -1.445   3.085  1.00  0.00    -0.274 OA
ATOM     23  H   UNL     1      -0.914   0.410   1.547  1.00  0.00     0.170 HD
ENDBRANCH   1  13
TORSDOF 3
