REMARK SMILES O=C1C[C@](O)(C(=O)N2CC(CF)C2)c2cc(Br)ccc2N1
REMARK SMILES IDX 4 1 3 2 2 3 1 4 21 5 20 6 19 7 18 8 16 9 17 10 15 11 14 12
REMARK SMILES IDX 6 14 7 15 8 16 9 17 13 18 10 19 11 20 12 21 5 22
REMARK H PARENT 21 13 5 23
ROOT
ATOM      1  C   UNL     1       0.654  -0.298  -0.570  1.00  0.00     0.179 C 
ATOM      2  C   UNL     1       1.568  -0.373  -1.826  1.00  0.00     0.151 C 
ATOM      3  C   UNL     1       2.518  -1.525  -1.722  1.00  0.00     0.228 C 
ATOM      4  O   UNL     1       2.849  -2.175  -2.749  1.00  0.00    -0.275 OA
ATOM      5  N   UNL     1       3.105  -1.832  -0.457  1.00  0.00    -0.326 N 
ATOM      6  C   UNL     1       2.674  -1.147   0.727  1.00  0.00     0.047 A 
ATOM      7  C   UNL     1       3.409  -1.285   1.913  1.00  0.00     0.028 A 
ATOM      8  C   UNL     1       2.994  -0.642   3.079  1.00  0.00     0.018 A 
ATOM      9  C   UNL     1       1.832   0.131   3.076  1.00  0.00     0.018 A 
ATOM     10  Br  UNL     1       1.251   0.984   4.683  1.00  0.00    -0.051 Br
ATOM     11  C   UNL     1       1.085   0.270   1.903  1.00  0.00     0.025 A 
ATOM     12  C   UNL     1       1.507  -0.342   0.702  1.00  0.00     0.018 A 
ATOM     13  H   UNL     1       3.870  -2.543  -0.406  1.00  0.00     0.169 HD
ENDROOT
BRANCH   1  14
ATOM     14  C   UNL     1      -0.180   0.976  -0.634  1.00  0.00     0.259 C 
ATOM     15  O   UNL     1       0.341   2.050  -1.041  1.00  0.00    -0.271 OA
ATOM     16  N   UNL     1      -1.527   1.008  -0.152  1.00  0.00    -0.339 N 
ATOM     17  C   UNL     1      -2.505   0.102   0.486  1.00  0.00     0.127 C 
ATOM     18  C   UNL     1      -2.568   2.037   0.028  1.00  0.00     0.127 C 
ATOM     19  C   UNL     1      -3.573   1.135   0.677  1.00  0.00     0.059 C 
BRANCH  19  20
ATOM     20  C   UNL     1      -4.852   0.901  -0.141  1.00  0.00     0.221 C 
ATOM     21  F   UNL     1      -4.572   0.599  -1.464  1.00  0.00    -0.251 F 
ENDBRANCH  19  20
ENDBRANCH   1  14
BRANCH   1  22
ATOM     22  O   UNL     1      -0.189  -1.427  -0.547  1.00  0.00    -0.375 OA
ATOM     23  H   UNL     1      -0.715  -1.436  -1.390  1.00  0.00     0.212 HD
ENDBRANCH   1  22
TORSDOF 3
