REMARK SMILES CCOC(=O)c1cc(S(=O)(=O)Nc2ccc(F)cc2CS(C)(=O)=O)cn1C
REMARK SMILES IDX 9 1 10 2 11 3 8 4 6 5 7 6 26 7 25 8 27 9 4 10 5 11 3 12 2 13
REMARK SMILES IDX 1 14 12 15 13 17 14 18 19 19 15 20 18 21 16 22 17 23 20 24
REMARK SMILES IDX 21 25 23 26 24 27 22 28
REMARK H PARENT 12 16
ROOT
ATOM      1  S   UNL     1       1.076  -1.954  -3.873  1.00  0.00     0.263 S 
ATOM      2  O   UNL     1       0.774  -1.912  -5.345  1.00  0.00    -0.201 OA
ATOM      3  O   UNL     1       2.506  -2.371  -3.677  1.00  0.00    -0.201 OA
ENDROOT
BRANCH   1   4
ATOM      4  C   UNL     1       0.848  -0.370  -3.159  1.00  0.00     0.106 A 
ATOM      5  C   UNL     1       0.673   1.273  -1.701  1.00  0.00     0.128 A 
ATOM      6  C   UNL     1       1.022  -0.059  -1.829  1.00  0.00     0.057 A 
ATOM      7  N   UNL     1       0.296   1.769  -2.906  1.00  0.00    -0.344 N 
ATOM      8  C   UNL     1       0.401   0.764  -3.799  1.00  0.00     0.108 A 
ATOM      9  C   UNL     1      -0.158   3.123  -3.212  1.00  0.00     0.150 C 
BRANCH   5  10
ATOM     10  C   UNL     1       0.679   2.008  -0.421  1.00  0.00     0.354 C 
ATOM     11  O   UNL     1       0.470   3.251  -0.393  1.00  0.00    -0.244 OA
BRANCH  10  12
ATOM     12  O   UNL     1       0.913   1.304   0.764  1.00  0.00    -0.461 OA
BRANCH  12  13
ATOM     13  C   UNL     1       0.928   1.929   2.042  1.00  0.00     0.230 C 
ATOM     14  C   UNL     1       1.088   0.870   3.121  1.00  0.00     0.049 C 
ENDBRANCH  12  13
ENDBRANCH  10  12
ENDBRANCH   5  10
ENDBRANCH   1   4
BRANCH   1  15
ATOM     15  N   UNL     1       0.028  -3.093  -3.093  1.00  0.00    -0.279 N 
ATOM     16  H   UNL     1       0.408  -4.044  -2.892  1.00  0.00     0.180 HD
BRANCH  15  17
ATOM     17  C   UNL     1      -1.310  -2.752  -2.700  1.00  0.00     0.053 A 
ATOM     18  C   UNL     1      -2.142  -2.070  -3.606  1.00  0.00     0.030 A 
ATOM     19  C   UNL     1      -1.825  -3.129  -1.434  1.00  0.00    -0.006 A 
ATOM     20  C   UNL     1      -3.467  -1.784  -3.278  1.00  0.00     0.041 A 
ATOM     21  C   UNL     1      -3.170  -2.849  -1.130  1.00  0.00     0.046 A 
ATOM     22  C   UNL     1      -3.984  -2.182  -2.046  1.00  0.00     0.123 A 
ATOM     23  F   UNL     1      -5.276  -1.912  -1.735  1.00  0.00    -0.207 F 
BRANCH  19  24
ATOM     24  C   UNL     1      -0.965  -3.755  -0.360  1.00  0.00     0.174 C 
BRANCH  24  25
ATOM     25  S   UNL     1      -0.717  -2.627   1.010  1.00  0.00     0.151 S 
ATOM     26  O   UNL     1      -0.849  -1.201   0.552  1.00  0.00    -0.229 OA
ATOM     27  O   UNL     1      -1.744  -2.899   2.073  1.00  0.00    -0.229 OA
ATOM     28  C   UNL     1       0.908  -2.873   1.692  1.00  0.00     0.158 C 
ENDBRANCH  24  25
ENDBRANCH  19  24
ENDBRANCH  15  17
ENDBRANCH   1  15
TORSDOF 8
