REMARK SMILES CN1CC[C@](C)(CNC(=O)Nc2ccc(-c3ncco3)cc2)C1
REMARK SMILES IDX 8 1 9 2 10 3 11 4 7 7 5 8 2 9 3 10 23 11 4 12 1 13 6 14
REMARK SMILES IDX 12 15 13 16 22 17 14 18 21 19 15 20 16 21 17 22 20 23 18 24
REMARK SMILES IDX 19 25
REMARK H PARENT 8 5 11 6
ROOT
ATOM      1  N   UNL     1      -0.155  -0.523   2.482  1.00  0.00    -0.337 N 
ATOM      2  C   UNL     1       0.575   0.431   1.697  1.00  0.00     0.319 C 
ATOM      3  O   UNL     1       0.116   1.593   1.525  1.00  0.00    -0.249 OA
ATOM      4  N   UNL     1       1.843   0.062   1.135  1.00  0.00    -0.308 N 
ATOM      5  H   UNL     1       0.278  -1.458   2.654  1.00  0.00     0.165 HD
ATOM      6  H   UNL     1       2.328  -0.772   1.537  1.00  0.00     0.171 HD
ENDROOT
BRANCH   1   7
ATOM      7  C   UNL     1      -1.453  -0.230   3.097  1.00  0.00     0.125 C 
BRANCH   7   8
ATOM      8  C   UNL     1      -2.655  -0.818   2.304  1.00  0.00    -0.001 C 
ATOM      9  N   UNL     1      -3.401  -2.675   0.976  1.00  0.00    -0.306 NA
ATOM     10  C   UNL     1      -3.362  -1.502   0.084  1.00  0.00     0.085 C 
ATOM     11  C   UNL     1      -2.590  -2.342   2.154  1.00  0.00     0.092 C 
ATOM     12  C   UNL     1      -2.716  -0.347   0.848  1.00  0.00     0.025 C 
ATOM     13  C   UNL     1      -2.919  -3.893   0.309  1.00  0.00     0.105 C 
ATOM     14  C   UNL     1      -3.963  -0.427   3.031  1.00  0.00     0.014 C 
ENDBRANCH   7   8
ENDBRANCH   1   7
BRANCH   4  15
ATOM     15  C   UNL     1       2.528   0.822   0.124  1.00  0.00     0.042 A 
ATOM     16  C   UNL     1       1.823   1.511  -0.878  1.00  0.00     0.027 A 
ATOM     17  C   UNL     1       3.929   0.826   0.098  1.00  0.00     0.027 A 
ATOM     18  C   UNL     1       2.512   2.222  -1.865  1.00  0.00     0.016 A 
ATOM     19  C   UNL     1       4.619   1.537  -0.888  1.00  0.00     0.016 A 
ATOM     20  C   UNL     1       3.916   2.245  -1.877  1.00  0.00     0.037 A 
BRANCH  20  21
ATOM     21  C   UNL     1       4.638   2.998  -2.922  1.00  0.00     0.225 A 
ATOM     22  N   UNL     1       5.985   3.067  -3.005  1.00  0.00    -0.218 NA
ATOM     23  O   UNL     1       4.041   3.678  -3.876  1.00  0.00    -0.445 OA
ATOM     24  C   UNL     1       6.192   3.842  -4.086  1.00  0.00     0.154 A 
ATOM     25  C   UNL     1       4.979   4.213  -4.616  1.00  0.00     0.218 A 
ENDBRANCH  20  21
ENDBRANCH   4  15
TORSDOF 4
