REMARK SMILES O=C(Nc1cccc(C(=O)Nc2ccc(Cl)cn2)c1)N[C@H](CO)c1ccc(F)c(Cl)c1
REMARK SMILES IDX 1 1 2 2 3 3 20 4 4 7 5 8 19 9 6 10 8 11 7 12 9 13 10 14
REMARK SMILES IDX 11 15 12 17 13 18 18 19 14 20 17 21 15 22 16 23 21 24 22 25
REMARK SMILES IDX 23 26 24 28 25 29 31 30 26 31 29 32 27 33 30 34 28 35
REMARK H PARENT 3 5 20 6 11 16 23 27
ROOT
ATOM      1  O   UNL     1      -1.290  -2.515  -2.389  1.00  0.00    -0.248 OA
ATOM      2  C   UNL     1      -0.505  -2.609  -1.406  1.00  0.00     0.319 C 
ATOM      3  N   UNL     1      -0.018  -1.429  -0.751  1.00  0.00    -0.308 N 
ATOM      4  N   UNL     1      -0.125  -3.901  -0.913  1.00  0.00    -0.329 N 
ATOM      5  H   UNL     1       0.368  -1.534   0.214  1.00  0.00     0.171 HD
ATOM      6  H   UNL     1       0.486  -3.946  -0.066  1.00  0.00     0.166 HD
ENDROOT
BRANCH   3   7
ATOM      7  C   UNL     1      -0.121  -0.103  -1.299  1.00  0.00     0.043 A 
ATOM      8  C   UNL     1      -0.017   0.128  -2.681  1.00  0.00     0.026 A 
ATOM      9  C   UNL     1      -0.260   0.991  -0.430  1.00  0.00     0.040 A 
ATOM     10  C   UNL     1      -0.083   1.428  -3.185  1.00  0.00     0.003 A 
ATOM     11  C   UNL     1      -0.341   2.304  -0.930  1.00  0.00     0.042 A 
ATOM     12  C   UNL     1      -0.245   2.510  -2.318  1.00  0.00     0.014 A 
BRANCH  11  13
ATOM     13  C   UNL     1      -0.495   3.462  -0.016  1.00  0.00     0.256 C 
ATOM     14  O   UNL     1      -0.141   4.608  -0.409  1.00  0.00    -0.269 OA
ATOM     15  N   UNL     1      -1.074   3.300   1.291  1.00  0.00    -0.307 N 
ATOM     16  H   UNL     1      -1.643   2.444   1.478  1.00  0.00     0.171 HD
BRANCH  15  17
ATOM     17  C   UNL     1      -0.957   4.272   2.344  1.00  0.00     0.132 A 
ATOM     18  C   UNL     1      -1.674   4.100   3.537  1.00  0.00     0.049 A 
ATOM     19  N   UNL     1      -0.137   5.353   2.207  1.00  0.00    -0.238 NA
ATOM     20  C   UNL     1      -1.543   5.041   4.560  1.00  0.00     0.026 A 
ATOM     21  C   UNL     1       0.004   6.281   3.191  1.00  0.00     0.134 A 
ATOM     22  C   UNL     1      -0.701   6.141   4.389  1.00  0.00     0.059 A 
ATOM     23  Cl  UNL     1      -0.525   7.332   5.665  1.00  0.00    -0.083 Cl
ENDBRANCH  15  17
ENDBRANCH  11  13
ENDBRANCH   3   7
BRANCH   4  24
ATOM     24  C   UNL     1      -0.561  -5.143  -1.563  1.00  0.00     0.139 C 
BRANCH  24  25
ATOM     25  C   UNL     1      -0.232  -6.367  -0.693  1.00  0.00     0.185 C 
BRANCH  25  26
ATOM     26  O   UNL     1       1.151  -6.477  -0.492  1.00  0.00    -0.394 OA
ATOM     27  H   UNL     1       1.283  -7.283   0.072  1.00  0.00     0.210 HD
ENDBRANCH  25  26
ENDBRANCH  24  25
BRANCH  24  28
ATOM     28  C   UNL     1       0.058  -5.282  -2.941  1.00  0.00    -0.022 A 
ATOM     29  C   UNL     1      -0.705  -5.797  -4.003  1.00  0.00     0.009 A 
ATOM     30  C   UNL     1       1.406  -4.944  -3.169  1.00  0.00     0.029 A 
ATOM     31  C   UNL     1      -0.140  -5.948  -5.272  1.00  0.00     0.041 A 
ATOM     32  C   UNL     1       1.969  -5.095  -4.441  1.00  0.00     0.077 A 
ATOM     33  C   UNL     1       1.194  -5.595  -5.494  1.00  0.00     0.141 A 
ATOM     34  Cl  UNL     1       3.647  -4.655  -4.706  1.00  0.00    -0.081 Cl
ATOM     35  F   UNL     1       1.731  -5.745  -6.731  1.00  0.00    -0.205 F 
ENDBRANCH  24  28
ENDBRANCH   4  24
TORSDOF 7
