REMARK SMILES O=C(NCC1CCOCC1)c1cnc(Nc2ccccc2)nc1C(F)(F)F
REMARK SMILES IDX 11 1 12 2 13 3 14 4 22 5 23 6 2 7 1 8 3 9 4 11 5 12 6 13
REMARK SMILES IDX 10 14 7 15 9 16 8 17 24 18 25 19 26 20 27 21 15 22 16 24
REMARK SMILES IDX 17 25 21 26 18 27 20 28 19 29
REMARK H PARENT 3 10 15 23
ROOT
ATOM      1  C   UNL     1       1.249  -1.149  -1.031  1.00  0.00     0.089 A 
ATOM      2  C   UNL     1       0.222  -2.075  -0.802  1.00  0.00     0.131 A 
ATOM      3  N   UNL     1       0.285  -2.925   0.252  1.00  0.00    -0.220 NA
ATOM      4  C   UNL     1       1.331  -2.895   1.118  1.00  0.00     0.227 A 
ATOM      5  N   UNL     1       2.341  -2.012   0.917  1.00  0.00    -0.207 NA
ATOM      6  C   UNL     1       2.334  -1.130  -0.119  1.00  0.00     0.162 A 
ENDROOT
BRANCH   1   7
ATOM      7  C   UNL     1       1.161  -0.254  -2.210  1.00  0.00     0.255 C 
ATOM      8  O   UNL     1       2.188  -0.027  -2.906  1.00  0.00    -0.269 OA
ATOM      9  N   UNL     1      -0.093   0.340  -2.578  1.00  0.00    -0.352 N 
ATOM     10  H   UNL     1      -0.920   0.198  -1.955  1.00  0.00     0.163 HD
BRANCH   9  11
ATOM     11  C   UNL     1      -0.223   1.158  -3.785  1.00  0.00     0.120 C 
BRANCH  11  12
ATOM     12  C   UNL     1      -1.647   1.734  -3.929  1.00  0.00     0.013 C 
ATOM     13  C   UNL     1      -1.841   2.334  -5.337  1.00  0.00     0.034 C 
ATOM     14  C   UNL     1      -1.962   2.781  -2.832  1.00  0.00     0.034 C 
ATOM     15  C   UNL     1      -2.962   3.385  -5.317  1.00  0.00     0.160 C 
ATOM     16  C   UNL     1      -1.832   4.212  -3.378  1.00  0.00     0.160 C 
ATOM     17  O   UNL     1      -2.715   4.493  -4.457  1.00  0.00    -0.381 OA
ENDBRANCH  11  12
ENDBRANCH   9  11
ENDBRANCH   1   7
BRANCH   6  18
ATOM     18  C   UNL     1       3.490  -0.169  -0.242  1.00  0.00     0.434 C 
ATOM     19  F   UNL     1       3.029   1.118  -0.453  1.00  0.00    -0.164 F 
ATOM     20  F   UNL     1       4.306  -0.550  -1.291  1.00  0.00    -0.164 F 
ATOM     21  F   UNL     1       4.242  -0.173   0.921  1.00  0.00    -0.164 F 
ENDBRANCH   6  18
BRANCH   4  22
ATOM     22  N   UNL     1       1.407  -3.821   2.212  1.00  0.00    -0.324 N 
ATOM     23  H   UNL     1       2.342  -3.964   2.658  1.00  0.00     0.170 HD
BRANCH  22  24
ATOM     24  C   UNL     1       0.312  -4.637   2.659  1.00  0.00     0.041 A 
ATOM     25  C   UNL     1      -1.010  -4.153   2.664  1.00  0.00     0.026 A 
ATOM     26  C   UNL     1       0.571  -5.922   3.163  1.00  0.00     0.026 A 
ATOM     27  C   UNL     1      -2.054  -4.960   3.128  1.00  0.00     0.002 A 
ATOM     28  C   UNL     1      -0.476  -6.725   3.625  1.00  0.00     0.002 A 
ATOM     29  C   UNL     1      -1.788  -6.246   3.604  1.00  0.00     0.000 A 
ENDBRANCH  22  24
ENDBRANCH   4  22
TORSDOF 6
