REMARK SMILES CCOC(=O)c1cc(S(=O)(=O)Nc2ccc(F)cc2CS(C)(=O)=O)cn1C
REMARK SMILES IDX 9 1 10 2 11 3 8 4 6 5 7 6 26 7 25 8 27 9 4 10 5 11 3 12 2 13
REMARK SMILES IDX 1 14 12 15 13 17 14 18 19 19 15 20 18 21 16 22 17 23 20 24
REMARK SMILES IDX 21 25 23 26 24 27 22 28
REMARK H PARENT 12 16
ROOT
ATOM      1  S   UNL     1       2.327   1.359  -1.368  1.00  0.00     0.263 S 
ATOM      2  O   UNL     1       3.283   2.464  -1.014  1.00  0.00    -0.201 OA
ATOM      3  O   UNL     1       3.078   0.316  -2.147  1.00  0.00    -0.201 OA
ENDROOT
BRANCH   1   4
ATOM      4  C   UNL     1       1.693   0.611   0.088  1.00  0.00     0.106 A 
ATOM      5  C   UNL     1       0.814  -0.834   1.505  1.00  0.00     0.128 A 
ATOM      6  C   UNL     1       1.294  -0.703   0.214  1.00  0.00     0.057 A 
ATOM      7  N   UNL     1       0.926   0.348   2.161  1.00  0.00    -0.344 N 
ATOM      8  C   UNL     1       1.464   1.232   1.297  1.00  0.00     0.108 A 
ATOM      9  C   UNL     1       0.527   0.651   3.534  1.00  0.00     0.150 C 
BRANCH   5  10
ATOM     10  C   UNL     1       0.236  -2.078   2.048  1.00  0.00     0.354 C 
ATOM     11  O   UNL     1      -0.173  -2.130   3.239  1.00  0.00    -0.244 OA
BRANCH  10  12
ATOM     12  O   UNL     1       0.137  -3.201   1.220  1.00  0.00    -0.461 OA
BRANCH  12  13
ATOM     13  C   UNL     1      -0.440  -4.427   1.655  1.00  0.00     0.230 C 
ATOM     14  C   UNL     1      -0.396  -5.439   0.521  1.00  0.00     0.049 C 
ENDBRANCH  12  13
ENDBRANCH  10  12
ENDBRANCH   5  10
ENDBRANCH   1   4
BRANCH   1  15
ATOM     15  N   UNL     1       1.034   1.975  -2.353  1.00  0.00    -0.279 N 
ATOM     16  H   UNL     1       1.041   1.668  -3.346  1.00  0.00     0.180 HD
BRANCH  15  17
ATOM     17  C   UNL     1      -0.017   2.826  -1.851  1.00  0.00     0.053 A 
ATOM     18  C   UNL     1       0.244   3.700  -0.778  1.00  0.00     0.030 A 
ATOM     19  C   UNL     1      -1.315   2.833  -2.438  1.00  0.00    -0.006 A 
ATOM     20  C   UNL     1      -0.752   4.532  -0.270  1.00  0.00     0.041 A 
ATOM     21  C   UNL     1      -2.305   3.678  -1.905  1.00  0.00     0.046 A 
ATOM     22  C   UNL     1      -2.026   4.519  -0.829  1.00  0.00     0.123 A 
ATOM     23  F   UNL     1      -2.995   5.324  -0.328  1.00  0.00    -0.207 F 
BRANCH  19  24
ATOM     24  C   UNL     1      -1.719   1.912  -3.568  1.00  0.00     0.174 C 
BRANCH  24  25
ATOM     25  S   UNL     1      -2.463   0.415  -2.938  1.00  0.00     0.151 S 
ATOM     26  O   UNL     1      -2.793  -0.489  -4.091  1.00  0.00    -0.229 OA
ATOM     27  O   UNL     1      -3.729   0.755  -2.202  1.00  0.00    -0.229 OA
ATOM     28  C   UNL     1      -1.355  -0.429  -1.835  1.00  0.00     0.158 C 
ENDBRANCH  24  25
ENDBRANCH  19  24
ENDBRANCH  15  17
ENDBRANCH   1  15
TORSDOF 8
