REMARK SMILES O=C1CC[C@@H](c2cccc(NC(=O)c3ccc(Oc4ccccc4)cn3)c2)N1
REMARK SMILES IDX 13 1 12 2 11 3 14 5 15 6 26 7 16 8 25 9 17 10 18 11 19 12
REMARK SMILES IDX 20 13 24 14 21 15 23 16 22 17 10 18 9 19 27 20 8 21 6 22
REMARK SMILES IDX 7 23 5 24 4 25 28 26 3 27 2 28 1 29
REMARK H PARENT 11 4 28 30
ROOT
ATOM      1  O   UNL     1      -0.209   0.908   3.063  1.00  0.00    -0.267 OA
ATOM      2  C   UNL     1      -0.432   0.428   1.918  1.00  0.00     0.274 C 
ATOM      3  N   UNL     1      -0.556   1.304   0.784  1.00  0.00    -0.321 N 
ATOM      4  H   UNL     1      -0.404   0.902  -0.169  1.00  0.00     0.170 HD
ENDROOT
BRANCH   2   5
ATOM      5  C   UNL     1      -0.527  -1.037   1.744  1.00  0.00     0.128 A 
ATOM      6  C   UNL     1      -0.348  -1.910   2.829  1.00  0.00     0.038 A 
ATOM      7  N   UNL     1      -0.806  -1.554   0.515  1.00  0.00    -0.247 NA
ATOM      8  C   UNL     1      -0.448  -3.288   2.627  1.00  0.00     0.051 A 
ATOM      9  C   UNL     1      -0.904  -2.892   0.296  1.00  0.00     0.159 A 
ATOM     10  C   UNL     1      -0.711  -3.795   1.353  1.00  0.00     0.145 A 
BRANCH  10  11
ATOM     11  O   UNL     1      -0.821  -5.183   1.182  1.00  0.00    -0.456 OA
BRANCH  11  12
ATOM     12  C   UNL     1      -0.512  -5.885   0.007  1.00  0.00     0.127 A 
ATOM     13  C   UNL     1       0.503  -5.460  -0.870  1.00  0.00     0.047 A 
ATOM     14  C   UNL     1      -1.206  -7.069  -0.271  1.00  0.00     0.047 A 
ATOM     15  C   UNL     1       0.792  -6.198  -2.022  1.00  0.00     0.004 A 
ATOM     16  C   UNL     1      -0.916  -7.805  -1.424  1.00  0.00     0.004 A 
ATOM     17  C   UNL     1       0.080  -7.367  -2.302  1.00  0.00     0.000 A 
ENDBRANCH  11  12
ENDBRANCH  10  11
ENDBRANCH   2   5
BRANCH   3  18
ATOM     18  C   UNL     1      -0.752   2.725   0.885  1.00  0.00     0.041 A 
ATOM     19  C   UNL     1      -1.522   3.287   1.918  1.00  0.00     0.026 A 
ATOM     20  C   UNL     1      -0.215   3.565  -0.102  1.00  0.00     0.032 A 
ATOM     21  C   UNL     1      -1.723   4.668   1.976  1.00  0.00     0.003 A 
ATOM     22  C   UNL     1      -0.405   4.958  -0.043  1.00  0.00    -0.024 A 
ATOM     23  C   UNL     1      -1.167   5.501   1.003  1.00  0.00     0.006 A 
BRANCH  22  24
ATOM     24  C   UNL     1       0.169   5.863  -1.112  1.00  0.00     0.113 C 
ATOM     25  C   UNL     1      -0.507   5.638  -2.490  1.00  0.00     0.040 C 
ATOM     26  N   UNL     1       1.580   5.582  -1.310  1.00  0.00    -0.349 N 
ATOM     27  C   UNL     1       0.573   5.111  -3.449  1.00  0.00     0.102 C 
ATOM     28  C   UNL     1       1.804   5.162  -2.637  1.00  0.00     0.220 C 
ATOM     29  O   UNL     1       2.946   4.853  -3.069  1.00  0.00    -0.275 OA
ATOM     30  H   UNL     1       2.320   5.681  -0.580  1.00  0.00     0.164 HD
ENDBRANCH  22  24
ENDBRANCH   3  18
TORSDOF 5
