REMARK SMILES O=C1C[C@](O)(C(=O)N2CC(CF)C2)c2cc(Br)ccc2N1
REMARK SMILES IDX 4 1 3 2 2 3 1 4 21 5 20 6 19 7 18 8 16 9 17 10 15 11 14 12
REMARK SMILES IDX 6 14 7 15 8 16 9 17 13 18 10 19 11 20 12 21 5 22
REMARK H PARENT 21 13 5 23
ROOT
ATOM      1  C   UNL     1      -0.224  -0.643  -0.082  1.00  0.00     0.179 C 
ATOM      2  C   UNL     1       1.264  -0.505   0.351  1.00  0.00     0.151 C 
ATOM      3  C   UNL     1       1.828   0.833  -0.019  1.00  0.00     0.228 C 
ATOM      4  O   UNL     1       3.038   0.943  -0.353  1.00  0.00    -0.275 OA
ATOM      5  N   UNL     1       1.005   1.994   0.085  1.00  0.00    -0.326 N 
ATOM      6  C   UNL     1      -0.394   1.868   0.371  1.00  0.00     0.047 A 
ATOM      7  C   UNL     1      -1.148   3.012   0.669  1.00  0.00     0.028 A 
ATOM      8  C   UNL     1      -2.516   2.908   0.925  1.00  0.00     0.018 A 
ATOM      9  C   UNL     1      -3.145   1.663   0.872  1.00  0.00     0.018 A 
ATOM     10  Br  UNL     1      -5.023   1.530   1.194  1.00  0.00    -0.051 Br
ATOM     11  C   UNL     1      -2.405   0.516   0.568  1.00  0.00     0.025 A 
ATOM     12  C   UNL     1      -1.017   0.598   0.339  1.00  0.00     0.018 A 
ATOM     13  H   UNL     1       1.435   2.939  -0.038  1.00  0.00     0.169 HD
ENDROOT
BRANCH   1  14
ATOM     14  C   UNL     1      -0.303  -0.811  -1.592  1.00  0.00     0.259 C 
ATOM     15  O   UNL     1      -0.559   0.183  -2.326  1.00  0.00    -0.271 OA
ATOM     16  N   UNL     1      -0.016  -2.064  -2.220  1.00  0.00    -0.339 N 
ATOM     17  C   UNL     1       0.084  -2.553  -3.607  1.00  0.00     0.127 C 
ATOM     18  C   UNL     1       0.351  -3.446  -1.853  1.00  0.00     0.127 C 
ATOM     19  C   UNL     1       0.461  -3.959  -3.255  1.00  0.00     0.059 C 
BRANCH  19  20
ATOM     20  C   UNL     1       1.883  -4.354  -3.668  1.00  0.00     0.221 C 
ATOM     21  F   UNL     1       1.929  -4.558  -5.035  1.00  0.00    -0.251 F 
ENDBRANCH  19  20
ENDBRANCH   1  14
BRANCH   1  22
ATOM     22  O   UNL     1      -0.805  -1.768   0.546  1.00  0.00    -0.375 OA
ATOM     23  H   UNL     1      -0.129  -2.490   0.622  1.00  0.00     0.212 HD
ENDBRANCH   1  22
TORSDOF 3
