REMARK SMILES Cc1cccc(Oc2ccc(C(=O)Nc3cccc([C@H]4CCC(=O)N4)c3)nc2)c1
REMARK SMILES IDX 8 1 9 2 10 3 11 4 27 5 28 6 7 7 6 8 2 9 3 10 29 11 4 12 5 13
REMARK SMILES IDX 1 14 12 15 13 16 14 17 15 19 16 20 26 21 17 22 19 23 18 24
REMARK SMILES IDX 20 25 21 26 25 27 22 28 23 29 24 30
REMARK H PARENT 14 18 25 31
ROOT
ATOM      1  C   UNL     1      -0.918   3.135  -1.827  1.00  0.00     0.145 A 
ATOM      2  C   UNL     1      -0.065   3.473  -0.765  1.00  0.00     0.051 A 
ATOM      3  C   UNL     1       0.520   2.468   0.008  1.00  0.00     0.038 A 
ATOM      4  C   UNL     1       0.260   1.122  -0.294  1.00  0.00     0.128 A 
ATOM      5  N   UNL     1      -0.557   0.822  -1.341  1.00  0.00    -0.247 NA
ATOM      6  C   UNL     1      -1.137   1.784  -2.107  1.00  0.00     0.159 A 
ENDROOT
BRANCH   1   7
ATOM      7  O   UNL     1      -1.518   4.106  -2.642  1.00  0.00    -0.456 OA
BRANCH   7   8
ATOM      8  C   UNL     1      -1.900   5.391  -2.228  1.00  0.00     0.127 A 
ATOM      9  C   UNL     1      -2.724   6.946  -0.538  1.00  0.00    -0.047 A 
ATOM     10  C   UNL     1      -2.700   7.978  -1.489  1.00  0.00     0.003 A 
ATOM     11  C   UNL     1      -2.338   5.650  -0.916  1.00  0.00     0.050 A 
ATOM     12  C   UNL     1      -2.284   7.719  -2.797  1.00  0.00     0.004 A 
ATOM     13  C   UNL     1      -1.890   6.430  -3.166  1.00  0.00     0.047 A 
ATOM     14  C   UNL     1      -3.205   7.202   0.859  1.00  0.00     0.044 C 
ENDBRANCH   7   8
ENDBRANCH   1   7
BRANCH   4  15
ATOM     15  C   UNL     1       0.857   0.030   0.507  1.00  0.00     0.274 C 
ATOM     16  O   UNL     1       1.604   0.309   1.484  1.00  0.00    -0.267 OA
ATOM     17  N   UNL     1       0.620  -1.343   0.152  1.00  0.00    -0.321 N 
ATOM     18  H   UNL     1       0.289  -1.554  -0.817  1.00  0.00     0.170 HD
BRANCH  17  19
ATOM     19  C   UNL     1       0.927  -2.458   1.008  1.00  0.00     0.041 A 
ATOM     20  C   UNL     1       0.796  -2.368   2.405  1.00  0.00     0.026 A 
ATOM     21  C   UNL     1       1.310  -3.680   0.435  1.00  0.00     0.032 A 
ATOM     22  C   UNL     1       1.076  -3.473   3.212  1.00  0.00     0.003 A 
ATOM     23  C   UNL     1       1.604  -4.794   1.242  1.00  0.00    -0.024 A 
ATOM     24  C   UNL     1       1.479  -4.680   2.636  1.00  0.00     0.006 A 
BRANCH  23  25
ATOM     25  C   UNL     1       2.010  -6.114   0.623  1.00  0.00     0.113 C 
ATOM     26  C   UNL     1       0.838  -6.778  -0.147  1.00  0.00     0.040 C 
ATOM     27  N   UNL     1       3.065  -5.914  -0.353  1.00  0.00    -0.349 N 
ATOM     28  C   UNL     1       1.242  -6.840  -1.629  1.00  0.00     0.102 C 
ATOM     29  C   UNL     1       2.627  -6.330  -1.627  1.00  0.00     0.220 C 
ATOM     30  O   UNL     1       3.348  -6.248  -2.655  1.00  0.00    -0.275 OA
ATOM     31  H   UNL     1       4.006  -5.510  -0.147  1.00  0.00     0.164 HD
ENDBRANCH  23  25
ENDBRANCH  17  19
ENDBRANCH   4  15
TORSDOF 5
