REMARK SMILES CN1CC[C@@](C)(CNC(=O)Nc2ccc(-c3ncco3)cc2)C1
REMARK SMILES IDX 8 1 9 2 10 3 11 4 7 7 5 8 2 9 3 10 23 11 4 12 1 13 6 14
REMARK SMILES IDX 12 15 13 16 22 17 14 18 21 19 15 20 16 21 17 22 20 23 18 24
REMARK SMILES IDX 19 25
REMARK H PARENT 8 5 11 6
ROOT
ATOM      1  N   UNL     1      -0.429   0.399  -1.214  1.00  0.00    -0.337 N 
ATOM      2  C   UNL     1       0.383   0.382  -0.031  1.00  0.00     0.319 C 
ATOM      3  O   UNL     1      -0.057   0.871   1.045  1.00  0.00    -0.249 OA
ATOM      4  N   UNL     1       1.679  -0.233  -0.072  1.00  0.00    -0.308 N 
ATOM      5  H   UNL     1      -0.029   0.011  -2.097  1.00  0.00     0.165 HD
ATOM      6  H   UNL     1       1.891  -0.861  -0.880  1.00  0.00     0.171 HD
ENDROOT
BRANCH   1   7
ATOM      7  C   UNL     1      -1.784   0.957  -1.248  1.00  0.00     0.125 C 
BRANCH   7   8
ATOM      8  C   UNL     1      -2.876  -0.141  -1.089  1.00  0.00    -0.001 C 
ATOM      9  N   UNL     1      -4.574   0.618  -2.611  1.00  0.00    -0.306 NA
ATOM     10  C   UNL     1      -3.857  -0.474  -3.289  1.00  0.00     0.085 C 
ATOM     11  C   UNL     1      -4.265   0.501  -1.181  1.00  0.00     0.092 C 
ATOM     12  C   UNL     1      -2.889  -1.097  -2.286  1.00  0.00     0.025 C 
ATOM     13  C   UNL     1      -6.022   0.569  -2.861  1.00  0.00     0.105 C 
ATOM     14  C   UNL     1      -2.707  -0.899   0.244  1.00  0.00     0.014 C 
ENDBRANCH   7   8
ENDBRANCH   1   7
BRANCH   4  15
ATOM     15  C   UNL     1       2.650  -0.141   0.985  1.00  0.00     0.042 A 
ATOM     16  C   UNL     1       2.797   1.030   1.748  1.00  0.00     0.027 A 
ATOM     17  C   UNL     1       3.512  -1.221   1.222  1.00  0.00     0.027 A 
ATOM     18  C   UNL     1       3.764   1.103   2.754  1.00  0.00     0.016 A 
ATOM     19  C   UNL     1       4.479  -1.150   2.229  1.00  0.00     0.016 A 
ATOM     20  C   UNL     1       4.611   0.011   3.007  1.00  0.00     0.037 A 
BRANCH  20  21
ATOM     21  C   UNL     1       5.635   0.081   4.069  1.00  0.00     0.225 A 
ATOM     22  N   UNL     1       5.828   1.161   4.858  1.00  0.00    -0.218 NA
ATOM     23  O   UNL     1       6.461  -0.902   4.353  1.00  0.00    -0.445 OA
ATOM     24  C   UNL     1       6.840   0.784   5.662  1.00  0.00     0.154 A 
ATOM     25  C   UNL     1       7.222  -0.497   5.338  1.00  0.00     0.218 A 
ENDBRANCH  20  21
ENDBRANCH   4  15
TORSDOF 4
