REMARK SMILES O=C(Nc1cccc(OC(F)F)c1)c1cccc(Nc2ncccn2)c1
REMARK SMILES IDX 4 1 5 2 6 3 7 4 8 5 13 6 3 7 1 8 2 9 14 11 15 12 26 13 16 14
REMARK SMILES IDX 18 15 17 16 19 17 20 19 21 20 25 21 22 22 24 23 23 24 9 25
REMARK SMILES IDX 10 26 11 27 12 28
REMARK H PARENT 3 10 19 18
ROOT
ATOM      1  C   UNL     1      -0.568   0.453  -2.217  1.00  0.00     0.045 A 
ATOM      2  C   UNL     1      -1.123  -0.523  -3.057  1.00  0.00     0.026 A 
ATOM      3  C   UNL     1      -0.880  -0.493  -4.432  1.00  0.00     0.006 A 
ATOM      4  C   UNL     1      -0.071   0.504  -4.979  1.00  0.00     0.047 A 
ATOM      5  C   UNL     1       0.512   1.476  -4.159  1.00  0.00     0.128 A 
ATOM      6  C   UNL     1       0.266   1.442  -2.771  1.00  0.00     0.072 A 
ENDROOT
BRANCH   1   7
ATOM      7  N   UNL     1      -0.815   0.389  -0.802  1.00  0.00    -0.322 N 
ATOM      8  O   UNL     1      -1.107   2.678  -0.443  1.00  0.00    -0.269 OA
ATOM      9  C   UNL     1      -0.867   1.543   0.053  1.00  0.00     0.255 C 
ATOM     10  H   UNL     1      -1.082  -0.536  -0.394  1.00  0.00     0.170 HD
BRANCH   9  11
ATOM     11  C   UNL     1      -0.694   1.409   1.520  1.00  0.00     0.042 A 
ATOM     12  C   UNL     1      -1.148   2.423   2.382  1.00  0.00     0.014 A 
ATOM     13  C   UNL     1      -0.051   0.285   2.070  1.00  0.00     0.040 A 
ATOM     14  C   UNL     1      -0.972   2.310   3.763  1.00  0.00     0.003 A 
ATOM     15  C   UNL     1       0.102   0.154   3.462  1.00  0.00     0.042 A 
ATOM     16  C   UNL     1      -0.346   1.184   4.300  1.00  0.00     0.026 A 
BRANCH  15  17
ATOM     17  N   UNL     1       0.769  -0.983   4.037  1.00  0.00    -0.324 N 
ATOM     18  H   UNL     1       1.300  -0.845   4.927  1.00  0.00     0.170 HD
BRANCH  17  19
ATOM     19  C   UNL     1       0.663  -2.321   3.530  1.00  0.00     0.227 A 
ATOM     20  N   UNL     1       1.501  -3.284   4.000  1.00  0.00    -0.221 NA
ATOM     21  N   UNL     1      -0.296  -2.649   2.620  1.00  0.00    -0.221 NA
ATOM     22  C   UNL     1       1.411  -4.567   3.561  1.00  0.00     0.117 A 
ATOM     23  C   UNL     1      -0.417  -3.920   2.156  1.00  0.00     0.117 A 
ATOM     24  C   UNL     1       0.444  -4.914   2.620  1.00  0.00     0.040 A 
ENDBRANCH  17  19
ENDBRANCH  15  17
ENDBRANCH   9  11
ENDBRANCH   1   7
BRANCH   5  25
ATOM     25  O   UNL     1       1.328   2.448  -4.758  1.00  0.00    -0.435 OA
BRANCH  25  26
ATOM     26  C   UNL     1       1.965   3.516  -4.063  1.00  0.00     0.542 C 
ATOM     27  F   UNL     1       1.013   4.363  -3.524  1.00  0.00    -0.167 F 
ATOM     28  F   UNL     1       2.748   4.229  -4.950  1.00  0.00    -0.167 F 
ENDBRANCH  25  26
ENDBRANCH   5  25
TORSDOF 6
