REMARK SMILES CC[C@@H]1Cc2ccccc2CN1C(=O)[C@H]1CCc2nncn2CC1
REMARK SMILES IDX 15 1 13 2 14 3 12 4 3 5 4 6 5 7 11 8 6 9 10 10 7 11 9 12
REMARK SMILES IDX 8 13 2 14 1 15 16 16 24 18 23 19 22 20 21 21 18 22 20 23
REMARK SMILES IDX 19 24 17 25
REMARK H PARENT
REMARK Flexibility Score:   51.900
ROOT
ATOM      1  C   UNL     1      -0.826  -1.142   0.896  1.00  0.00     0.081 C 
ENDROOT
BRANCH   1   2
ATOM      2  C   UNL     1       0.129  -0.101   0.354  1.00  0.00     0.226 C 
ATOM      3  O   UNL     1       0.390   0.915   1.057  1.00  0.00    -0.275 OA
BRANCH   2   4
ATOM      4  N   UNL     1       0.718  -0.227  -0.958  1.00  0.00    -0.335 N 
ATOM      5  C   UNL     1      -0.077  -0.691  -2.110  1.00  0.00     0.089 C 
ATOM      6  C   UNL     1      -0.280   0.494  -3.066  1.00  0.00     0.061 C 
ATOM      7  C   UNL     1       1.007   1.232  -3.345  1.00  0.00    -0.041 A 
ATOM      8  C   UNL     1       2.063   0.313  -1.209  1.00  0.00     0.155 C 
ATOM      9  C   UNL     1       1.093   2.045  -4.488  1.00  0.00     0.004 A 
ATOM     10  C   UNL     1       2.091   1.193  -2.436  1.00  0.00    -0.025 A 
ATOM     11  C   UNL     1       2.251   2.782  -4.746  1.00  0.00     0.000 A 
ATOM     12  C   UNL     1       3.252   1.932  -2.714  1.00  0.00     0.006 A 
ATOM     13  C   UNL     1       3.329   2.724  -3.862  1.00  0.00     0.000 A 
BRANCH   5  14
ATOM     14  C   UNL     1       0.597  -1.882  -2.830  1.00  0.00     0.022 C 
ATOM     15  C   UNL     1       0.730  -3.107  -1.927  1.00  0.00     0.006 C 
ENDBRANCH   5  14
ENDBRANCH   2   4
ENDBRANCH   1   2
BRANCH   1  16
ATOM     16  C   UNL     1      -0.376  -1.612   2.305  1.00  0.00     0.021 CG0
ATOM     17  G   UNL     1      -1.456  -2.353   3.113  1.00  0.00     0.000 G0
ENDBRANCH   1  16
BRANCH   1  18
ATOM     18  C   UNL     1      -2.275  -0.601   0.889  1.00  0.00     0.035 C 
BRANCH  18  19
ATOM     19  C   UNL     1      -3.341  -1.697   0.664  1.00  0.00     0.126 C 
BRANCH  19  20
ATOM     20  N   UNL     1      -2.985  -3.010   1.218  1.00  0.00    -0.318 N 
ATOM     21  C   UNL     1      -3.454  -4.200   0.801  1.00  0.00     0.225 A 
ATOM     22  C   UNL     1      -2.214  -3.334   2.276  1.00  0.00     0.132 A 
ATOM     23  N   UNL     1      -2.975  -5.206   1.558  1.00  0.00    -0.139 NA
ATOM     24  N   UNL     1      -2.196  -4.664   2.482  1.00  0.00    -0.136 NA
BRANCH  22  25
ATOM     25  C   UNL     1      -1.456  -2.353   3.113  1.00  0.00     0.078 CG0
ATOM     26  G   UNL     1      -0.376  -1.612   2.305  1.00  0.00     0.000 G0
ENDBRANCH  22  25
ENDBRANCH  19  20
ENDBRANCH  18  19
ENDBRANCH   1  18
TORSDOF 3
