REMARK SMILES c1ccc2c(c1)OCC[C@H]2Nc1nnc(-c2ccc3ccccc3n2)o1
REMARK SMILES IDX 15 1 14 2 13 3 12 4 26 5 16 6 21 7 22 8 20 9 23 10 19 11
REMARK SMILES IDX 24 12 18 13 25 14 17 15 11 16 10 18 9 19 4 20 8 21 3 22 5 23
REMARK SMILES IDX 7 24 2 25 6 26 1 27
REMARK H PARENT 11 17
ROOT
ATOM      1  C   UNL     1       1.208   0.077  -1.265  1.00  0.00     0.268 A 
ATOM      2  N   UNL     1       1.142   0.187  -2.607  1.00  0.00    -0.104 NA
ATOM      3  N   UNL     1       0.198  -0.652  -3.006  1.00  0.00    -0.090 NA
ATOM      4  C   UNL     1      -0.271  -1.237  -1.889  1.00  0.00     0.316 A 
ATOM      5  O   UNL     1       0.341  -0.799  -0.816  1.00  0.00    -0.402 OA
ENDROOT
BRANCH   1   6
ATOM      6  C   UNL     1       2.126   0.839  -0.406  1.00  0.00     0.128 A 
ATOM      7  C   UNL     1       4.588   2.731   3.535  1.00  0.00     0.001 A 
ATOM      8  C   UNL     1       3.655   1.820   4.041  1.00  0.00     0.002 A 
ATOM      9  C   UNL     1       4.683   2.950   2.157  1.00  0.00     0.010 A 
ATOM     10  C   UNL     1       2.811   1.122   3.172  1.00  0.00     0.029 A 
ATOM     11  C   UNL     1       3.838   2.255   1.278  1.00  0.00     0.000 A 
ATOM     12  C   UNL     1       2.897   1.335   1.791  1.00  0.00     0.071 A 
ATOM     13  C   UNL     1       3.904   2.454  -0.106  1.00  0.00     0.013 A 
ATOM     14  N   UNL     1       2.077   0.659   0.943  1.00  0.00    -0.243 NA
ATOM     15  C   UNL     1       3.047   1.746  -0.952  1.00  0.00     0.035 A 
ENDBRANCH   1   6
BRANCH   4  16
ATOM     16  N   UNL     1      -1.316  -2.215  -1.885  1.00  0.00    -0.331 N 
ATOM     17  H   UNL     1      -1.792  -2.422  -2.792  1.00  0.00     0.166 HD
BRANCH  16  18
ATOM     18  C   UNL     1      -1.853  -2.773  -0.642  1.00  0.00     0.121 C 
ATOM     19  C   UNL     1      -2.073  -4.293  -0.782  1.00  0.00     0.071 C 
ATOM     20  C   UNL     1      -3.132  -2.054  -0.275  1.00  0.00     0.017 A 
ATOM     21  C   UNL     1      -3.324  -4.607  -1.610  1.00  0.00     0.232 C 
ATOM     22  C   UNL     1      -3.081  -0.766   0.284  1.00  0.00     0.010 A 
ATOM     23  C   UNL     1      -4.384  -2.653  -0.521  1.00  0.00     0.124 A 
ATOM     24  O   UNL     1      -4.462  -3.937  -1.072  1.00  0.00    -0.493 OA
ATOM     25  C   UNL     1      -4.262  -0.092   0.608  1.00  0.00     0.001 A 
ATOM     26  C   UNL     1      -5.562  -1.974  -0.188  1.00  0.00     0.047 A 
ATOM     27  C   UNL     1      -5.501  -0.696   0.374  1.00  0.00     0.004 A 
ENDBRANCH  16  18
ENDBRANCH   4  16
TORSDOF 3
