REMARK SMILES C[C@H]1CC[C@@]2(CCN(C(=O)c3ccc(-c4nn[nH]n4)o3)C2)CC1
REMARK SMILES IDX 11 1 12 2 13 3 14 4 20 5 9 6 10 7 8 8 2 9 23 10 3 11 22 12
REMARK SMILES IDX 4 13 5 14 6 15 21 16 7 17 1 18 15 19 16 20 19 21 17 22 18 23
REMARK H PARENT 18 24
ROOT
ATOM      1  C   UNL     1       1.594   1.126  -1.880  1.00  0.00     0.192 A 
ATOM      2  C   UNL     1       1.982   1.720  -3.068  1.00  0.00     0.057 A 
ATOM      3  C   UNL     1       0.817   2.100  -3.700  1.00  0.00     0.055 A 
ATOM      4  C   UNL     1      -0.207   1.715  -2.857  1.00  0.00     0.176 A 
ATOM      5  O   UNL     1       0.284   1.141  -1.784  1.00  0.00    -0.447 OA
ENDROOT
BRANCH   1   6
ATOM      6  C   UNL     1       2.508   0.562  -0.864  1.00  0.00     0.289 C 
ATOM      7  O   UNL     1       3.751   0.676  -1.042  1.00  0.00    -0.265 OA
BRANCH   6   8
ATOM      8  N   UNL     1       2.024  -0.104   0.318  1.00  0.00    -0.335 N 
ATOM      9  C   UNL     1      -1.920  -2.424   1.149  1.00  0.00    -0.014 C 
ATOM     10  C   UNL     1      -1.786  -1.940   2.600  1.00  0.00     0.004 C 
ATOM     11  C   UNL     1      -0.704  -3.290   0.742  1.00  0.00     0.004 C 
ATOM     12  C   UNL     1      -0.536  -1.058   2.809  1.00  0.00     0.009 C 
ATOM     13  C   UNL     1       0.620  -2.856   1.412  1.00  0.00     0.009 C 
ATOM     14  C   UNL     1       0.643  -1.359   1.828  1.00  0.00    -0.010 C 
ATOM     15  C   UNL     1       1.998  -1.029   2.496  1.00  0.00     0.030 C 
ATOM     16  C   UNL     1       0.633  -0.446   0.576  1.00  0.00     0.127 C 
ATOM     17  C   UNL     1       2.911  -0.549   1.378  1.00  0.00     0.120 C 
ATOM     18  C   UNL     1      -3.229  -3.197   0.952  1.00  0.00     0.007 C 
ENDBRANCH   6   8
ENDBRANCH   1   6
BRANCH   4  19
ATOM     19  C   UNL     1      -1.640   1.904  -3.098  1.00  0.00     0.239 A 
ATOM     20  N   UNL     1      -2.159   2.492  -4.193  1.00  0.00    -0.105 NA
ATOM     21  N   UNL     1      -2.605   1.506  -2.248  1.00  0.00    -0.130 NA
ATOM     22  N   UNL     1      -3.469   2.453  -4.007  1.00  0.00    -0.050 NA
ATOM     23  N   UNL     1      -3.724   1.866  -2.850  1.00  0.00    -0.177 N 
ATOM     24  H   UNL     1      -4.681   1.708  -2.465  1.00  0.00     0.216 HD
ENDBRANCH   4  19
TORSDOF 3
