REMARK SMILES CC1(C)NC(=O)C[C@H]1C(=O)N1CCC[C@]1(C)c1ccccc1
REMARK SMILES IDX 9 1 10 2 8 3 2 4 4 5 5 6 7 7 6 8 1 9 3 10 11 12 12 13 15 14
REMARK SMILES IDX 13 15 14 16 16 17 17 18 18 19 22 20 19 21 21 22 20 23
REMARK H PARENT 4 11
ROOT
ATOM      1  C   UNL     1       0.551  -0.817  -0.407  1.00  0.00     0.229 C 
ATOM      2  O   UNL     1       0.235  -1.934   0.088  1.00  0.00    -0.274 OA
ENDROOT
BRANCH   1   3
ATOM      3  C   UNL     1       0.998   0.298   0.525  1.00  0.00     0.113 C 
ATOM      4  C   UNL     1      -0.162   0.897   1.409  1.00  0.00     0.046 C 
ATOM      5  N   UNL     1       0.020   0.292   2.720  1.00  0.00    -0.350 N 
ATOM      6  C   UNL     1       1.288  -0.321   2.792  1.00  0.00     0.221 C 
ATOM      7  C   UNL     1       2.049  -0.235   1.528  1.00  0.00     0.116 C 
ATOM      8  O   UNL     1       1.731  -0.849   3.845  1.00  0.00    -0.275 OA
ATOM      9  C   UNL     1      -1.587   0.601   0.899  1.00  0.00     0.035 C 
ATOM     10  C   UNL     1       0.015   2.421   1.543  1.00  0.00     0.035 C 
ATOM     11  H   UNL     1      -0.610   0.440   3.541  1.00  0.00     0.164 HD
ENDBRANCH   1   3
BRANCH   1  12
ATOM     12  N   UNL     1       0.453  -0.619  -1.836  1.00  0.00    -0.333 N 
ATOM     13  C   UNL     1       0.521   0.690  -2.472  1.00  0.00     0.120 C 
ATOM     14  C   UNL     1       0.223  -1.702  -2.801  1.00  0.00     0.065 C 
ATOM     15  C   UNL     1       0.073   0.478  -3.909  1.00  0.00     0.024 C 
ATOM     16  C   UNL     1       0.255  -1.010  -4.181  1.00  0.00     0.035 C 
ATOM     17  C   UNL     1       1.387  -2.718  -2.699  1.00  0.00     0.040 C 
BRANCH  14  18
ATOM     18  C   UNL     1      -1.157  -2.342  -2.576  1.00  0.00    -0.023 A 
ATOM     19  C   UNL     1      -1.400  -3.705  -2.858  1.00  0.00     0.006 A 
ATOM     20  C   UNL     1      -2.250  -1.543  -2.176  1.00  0.00     0.006 A 
ATOM     21  C   UNL     1      -2.674  -4.255  -2.684  1.00  0.00     0.000 A 
ATOM     22  C   UNL     1      -3.520  -2.099  -2.002  1.00  0.00     0.000 A 
ATOM     23  C   UNL     1      -3.731  -3.455  -2.249  1.00  0.00     0.000 A 
ENDBRANCH  14  18
ENDBRANCH   1  12
TORSDOF 3
