REMARK SMILES Cc1cccc(N(C)C(=O)c2cc(C)n(C(C)(C)C)n2)c1C
REMARK SMILES IDX 9 1 10 2 11 3 13 4 12 5 15 6 20 7 14 8 16 9 17 10 18 11
REMARK SMILES IDX 19 12 7 13 8 14 6 15 5 16 21 17 4 18 2 19 3 20 22 21 1 22
REMARK H PARENT
ROOT
ATOM      1  C   UNL     1      -0.743  -1.040  -1.818  1.00  0.00     0.278 C 
ATOM      2  O   UNL     1      -1.888  -1.211  -2.318  1.00  0.00    -0.267 OA
ENDROOT
BRANCH   1   3
ATOM      3  C   UNL     1      -0.621  -1.008  -0.347  1.00  0.00     0.151 A 
ATOM      4  C   UNL     1       0.098  -1.098   1.711  1.00  0.00     0.037 A 
ATOM      5  C   UNL     1       0.508  -1.262   0.404  1.00  0.00     0.059 A 
ATOM      6  N   UNL     1      -1.230  -0.797   1.728  1.00  0.00    -0.264 N 
ATOM      7  N   UNL     1      -1.652  -0.733   0.471  1.00  0.00    -0.167 NA
ATOM      8  C   UNL     1       1.002  -1.298   2.891  1.00  0.00     0.066 C 
BRANCH   6   9
ATOM      9  C   UNL     1      -2.109  -0.462   2.877  1.00  0.00     0.055 C 
ATOM     10  C   UNL     1      -1.934  -1.468   4.036  1.00  0.00     0.036 C 
ATOM     11  C   UNL     1      -1.800   0.967   3.360  1.00  0.00     0.036 C 
ATOM     12  C   UNL     1      -3.592  -0.512   2.436  1.00  0.00     0.036 C 
ENDBRANCH   6   9
ENDBRANCH   1   3
BRANCH   1  13
ATOM     13  N   UNL     1       0.394  -0.859  -2.691  1.00  0.00    -0.310 N 
ATOM     14  C   UNL     1       0.288  -1.262  -4.095  1.00  0.00     0.153 C 
BRANCH  13  15
ATOM     15  C   UNL     1       1.549  -0.104  -2.276  1.00  0.00     0.047 A 
ATOM     16  C   UNL     1       2.798  -0.741  -2.264  1.00  0.00     0.026 A 
ATOM     17  C   UNL     1       1.448   1.252  -1.868  1.00  0.00    -0.024 A 
ATOM     18  C   UNL     1       3.931  -0.073  -1.809  1.00  0.00     0.002 A 
ATOM     19  C   UNL     1       2.598   1.907  -1.353  1.00  0.00    -0.046 A 
ATOM     20  C   UNL     1       3.832   1.238  -1.348  1.00  0.00     0.004 A 
ATOM     21  C   UNL     1       0.125   1.980  -1.952  1.00  0.00     0.047 C 
ATOM     22  C   UNL     1       2.540   3.324  -0.843  1.00  0.00     0.044 C 
ENDBRANCH  13  15
ENDBRANCH   1  13
TORSDOF 4
