REMARK SMILES CC[C@H]1Cc2ccccc2CN1C(=O)[C@@H]1CCc2nncn2CC1
REMARK SMILES IDX 15 1 13 2 14 3 12 4 3 5 4 6 5 7 11 8 6 9 10 10 7 11 9 12
REMARK SMILES IDX 8 13 2 14 1 15 16 16 24 18 23 19 22 20 21 21 18 22 20 23
REMARK SMILES IDX 19 24 17 25
REMARK H PARENT
REMARK Flexibility Score:   51.900
ROOT
ATOM      1  C   UNL     1       1.204   0.516  -1.396  1.00  0.00     0.081 C 
ENDROOT
BRANCH   1   2
ATOM      2  C   UNL     1       0.135   1.358  -0.722  1.00  0.00     0.226 C 
ATOM      3  O   UNL     1      -0.124   2.491  -1.216  1.00  0.00    -0.275 OA
BRANCH   2   4
ATOM      4  N   UNL     1      -0.609   0.906   0.438  1.00  0.00    -0.335 N 
ATOM      5  C   UNL     1      -0.602  -0.509   0.859  1.00  0.00     0.089 C 
ATOM      6  C   UNL     1      -1.994  -0.910   1.375  1.00  0.00     0.061 C 
ATOM      7  C   UNL     1      -2.450   0.021   2.458  1.00  0.00    -0.041 A 
ATOM      8  C   UNL     1      -1.314   1.935   1.232  1.00  0.00     0.155 C 
ATOM      9  C   UNL     1      -3.242  -0.452   3.516  1.00  0.00     0.004 A 
ATOM     10  C   UNL     1      -2.105   1.383   2.394  1.00  0.00    -0.025 A 
ATOM     11  C   UNL     1      -3.675   0.424   4.514  1.00  0.00     0.000 A 
ATOM     12  C   UNL     1      -2.557   2.256   3.397  1.00  0.00     0.006 A 
ATOM     13  C   UNL     1      -3.332   1.776   4.455  1.00  0.00     0.000 A 
BRANCH   5  14
ATOM     14  C   UNL     1       0.513  -0.741   1.909  1.00  0.00     0.022 C 
ATOM     15  C   UNL     1       0.913  -2.212   2.023  1.00  0.00     0.006 C 
ENDBRANCH   5  14
ENDBRANCH   2   4
ENDBRANCH   1   2
BRANCH   1  16
ATOM     16  C   UNL     1       2.469   1.366  -1.681  1.00  0.00     0.021 CG0
ATOM     17  G   UNL     1       3.784   0.554  -1.680  1.00  0.00     0.000 G0
ENDBRANCH   1  16
BRANCH   1  18
ATOM     18  C   UNL     1       0.618  -0.124  -2.682  1.00  0.00     0.035 C 
BRANCH  18  19
ATOM     19  C   UNL     1       1.665  -0.616  -3.695  1.00  0.00     0.126 C 
BRANCH  19  20
ATOM     20  N   UNL     1       2.750  -1.337  -3.036  1.00  0.00    -0.318 N 
ATOM     21  C   UNL     1       3.070  -2.635  -3.173  1.00  0.00     0.225 A 
ATOM     22  C   UNL     1       3.677  -0.865  -2.179  1.00  0.00     0.132 A 
ATOM     23  N   UNL     1       4.153  -2.946  -2.435  1.00  0.00    -0.139 NA
ATOM     24  N   UNL     1       4.535  -1.838  -1.815  1.00  0.00    -0.136 NA
BRANCH  22  25
ATOM     25  C   UNL     1       3.784   0.554  -1.680  1.00  0.00     0.078 CG0
ATOM     26  G   UNL     1       2.469   1.366  -1.681  1.00  0.00     0.000 G0
ENDBRANCH  22  25
ENDBRANCH  19  20
ENDBRANCH  18  19
ENDBRANCH   1  18
TORSDOF 3
