REMARK SMILES CN1CCC2(CCN(C(=O)c3ccc4cccnn34)CC2)C1=O
REMARK SMILES IDX 1 1 2 2 3 3 4 4 5 5 6 6 7 7 8 8 20 9 21 10 9 11 10 12 22 13
REMARK SMILES IDX 23 14 11 15 12 16 19 17 13 18 18 19 14 20 17 21 15 22 16 23
REMARK H PARENT
ROOT
ATOM      1  C   UNL     1      -5.308   1.035  -1.319  1.00  0.00     0.146 C 
ATOM      2  N   UNL     1      -4.020   0.378  -1.504  1.00  0.00    -0.345 N 
ATOM      3  C   UNL     1      -3.841  -0.936  -2.087  1.00  0.00     0.120 C 
ATOM      4  C   UNL     1      -2.319  -1.159  -2.147  1.00  0.00     0.038 C 
ATOM      5  C   UNL     1      -1.658  -0.096  -1.220  1.00  0.00     0.054 C 
ATOM      6  C   UNL     1      -1.222  -0.752   0.115  1.00  0.00     0.038 C 
ATOM      7  C   UNL     1      -0.436   0.211   1.011  1.00  0.00     0.121 C 
ATOM      8  N   UNL     1       0.668   0.817   0.259  1.00  0.00    -0.337 N 
ATOM      9  C   UNL     1       0.353   1.494  -1.002  1.00  0.00     0.121 C 
ATOM     10  C   UNL     1      -0.448   0.568  -1.927  1.00  0.00     0.038 C 
ATOM     11  C   UNL     1       1.895   1.135   0.937  1.00  0.00     0.272 C 
ATOM     12  O   UNL     1       2.325   2.320   0.920  1.00  0.00    -0.267 OA
ATOM     13  C   UNL     1      -2.789   0.861  -1.005  1.00  0.00     0.228 C 
ATOM     14  O   UNL     1      -2.687   1.972  -0.418  1.00  0.00    -0.274 OA
ENDROOT
BRANCH  11  15
ATOM     15  C   UNL     1       2.675   0.088   1.626  1.00  0.00     0.130 A 
ATOM     16  C   UNL     1       2.525  -1.287   1.467  1.00  0.00     0.036 A 
ATOM     17  N   UNL     1       3.688   0.311   2.485  1.00  0.00    -0.228 N 
ATOM     18  C   UNL     1       3.479  -1.902   2.272  1.00  0.00     0.031 A 
ATOM     19  N   UNL     1       4.168   1.477   2.914  1.00  0.00    -0.176 NA
ATOM     20  C   UNL     1       4.172  -0.875   2.879  1.00  0.00     0.066 A 
ATOM     21  C   UNL     1       5.206   1.488   3.797  1.00  0.00     0.134 A 
ATOM     22  C   UNL     1       5.231  -0.941   3.778  1.00  0.00     0.030 A 
ATOM     23  C   UNL     1       5.756   0.273   4.244  1.00  0.00     0.024 A 
ENDBRANCH  11  15
TORSDOF 1
