REMARK SMILES CN1C(=O)c2cccc3c(S(=O)(=O)N4Cc5ccccc5-c5ccccc5C4)ccc1c23
REMARK SMILES IDX 1 1 2 2 3 3 4 4 5 5 6 6 7 7 8 8 9 9 10 10 29 11 30 12 31 13
REMARK SMILES IDX 32 14 11 15 12 16 13 17 14 18 15 19 28 20 16 21 27 22 17 23
REMARK SMILES IDX 21 24 26 25 22 26 18 27 20 28 25 29 23 30 19 31 24 32
REMARK H PARENT
ROOT
ATOM      1  C   UNL     1      -3.099   5.377  -1.379  1.00  0.00     0.153 C 
ATOM      2  N   UNL     1      -2.037   5.118  -0.413  1.00  0.00    -0.311 N 
ATOM      3  C   UNL     1      -1.217   6.112   0.222  1.00  0.00     0.258 C 
ATOM      4  O   UNL     1      -1.513   7.333   0.304  1.00  0.00    -0.269 OA
ATOM      5  C   UNL     1       0.019   5.497   0.698  1.00  0.00     0.050 A 
ATOM      6  C   UNL     1       1.157   5.986   1.334  1.00  0.00     0.014 A 
ATOM      7  C   UNL     1       2.216   5.080   1.572  1.00  0.00     0.002 A 
ATOM      8  C   UNL     1       2.120   3.724   1.162  1.00  0.00     0.010 A 
ATOM      9  C   UNL     1       0.949   3.259   0.515  1.00  0.00     0.005 A 
ATOM     10  C   UNL     1       0.724   1.947   0.016  1.00  0.00     0.090 A 
ATOM     11  C   UNL     1      -0.475   1.681  -0.707  1.00  0.00     0.024 A 
ATOM     12  C   UNL     1      -1.460   2.676  -0.891  1.00  0.00     0.028 A 
ATOM     13  C   UNL     1      -1.228   3.937  -0.344  1.00  0.00     0.052 A 
ATOM     14  C   UNL     1      -0.060   4.190   0.319  1.00  0.00     0.020 A 
ENDROOT
BRANCH  10  15
ATOM     15  S   UNL     1       1.903   0.645   0.236  1.00  0.00     0.244 S 
ATOM     16  O   UNL     1       2.415   0.646   1.652  1.00  0.00    -0.207 OA
ATOM     17  O   UNL     1       3.049   0.878  -0.709  1.00  0.00    -0.207 OA
BRANCH  15  18
ATOM     18  N   UNL     1       1.157  -0.904  -0.095  1.00  0.00    -0.189 NA
ATOM     19  C   UNL     1       0.239  -1.282   0.990  1.00  0.00     0.139 C 
ATOM     20  C   UNL     1       2.200  -1.915  -0.310  1.00  0.00     0.139 C 
ATOM     21  C   UNL     1      -0.973  -1.839   0.326  1.00  0.00    -0.025 A 
ATOM     22  C   UNL     1       1.722  -3.355  -0.478  1.00  0.00    -0.025 A 
ATOM     23  C   UNL     1      -2.195  -1.148   0.430  1.00  0.00     0.006 A 
ATOM     24  C   UNL     1      -0.853  -2.936  -0.557  1.00  0.00    -0.014 A 
ATOM     25  C   UNL     1       2.765  -4.302  -0.538  1.00  0.00     0.006 A 
ATOM     26  C   UNL     1       0.366  -3.814  -0.586  1.00  0.00    -0.014 A 
ATOM     27  C   UNL     1      -3.287  -1.520  -0.351  1.00  0.00     0.000 A 
ATOM     28  C   UNL     1      -1.961  -3.263  -1.371  1.00  0.00     0.009 A 
ATOM     29  C   UNL     1       2.506  -5.663  -0.668  1.00  0.00     0.000 A 
ATOM     30  C   UNL     1       0.142  -5.208  -0.685  1.00  0.00     0.009 A 
ATOM     31  C   UNL     1      -3.165  -2.564  -1.264  1.00  0.00     0.001 A 
ATOM     32  C   UNL     1       1.197  -6.116  -0.730  1.00  0.00     0.001 A 
ENDBRANCH  15  18
ENDBRANCH  10  15
TORSDOF 2
