REMARK SMILES O=C(Nc1cccc(OC(F)F)c1)c1cccc(Nc2ncccn2)c1
REMARK SMILES IDX 4 1 5 2 6 3 7 4 8 5 13 6 3 7 1 8 2 9 14 11 15 12 26 13 16 14
REMARK SMILES IDX 18 15 17 16 19 17 20 19 21 20 25 21 22 22 24 23 23 24 9 25
REMARK SMILES IDX 10 26 11 27 12 28
REMARK H PARENT 3 10 19 18
ROOT
ATOM      1  C   UNL     1      -0.018  -2.580  -1.881  1.00  0.00     0.045 A 
ATOM      2  C   UNL     1      -0.057  -3.975  -1.737  1.00  0.00     0.026 A 
ATOM      3  C   UNL     1       0.733  -4.791  -2.549  1.00  0.00     0.006 A 
ATOM      4  C   UNL     1       1.559  -4.224  -3.521  1.00  0.00     0.047 A 
ATOM      5  C   UNL     1       1.597  -2.837  -3.700  1.00  0.00     0.128 A 
ATOM      6  C   UNL     1       0.799  -2.015  -2.878  1.00  0.00     0.072 A 
ENDROOT
BRANCH   1   7
ATOM      7  N   UNL     1      -0.855  -1.761  -1.046  1.00  0.00    -0.322 N 
ATOM      8  O   UNL     1       0.700  -0.069  -0.634  1.00  0.00    -0.269 OA
ATOM      9  C   UNL     1      -0.509  -0.428  -0.633  1.00  0.00     0.255 C 
ATOM     10  H   UNL     1      -1.703  -2.202  -0.623  1.00  0.00     0.170 HD
BRANCH   9  11
ATOM     11  C   UNL     1      -1.551   0.514  -0.157  1.00  0.00     0.042 A 
ATOM     12  C   UNL     1      -2.904   0.321  -0.488  1.00  0.00     0.014 A 
ATOM     13  C   UNL     1      -1.192   1.638   0.612  1.00  0.00     0.040 A 
ATOM     14  C   UNL     1      -3.874   1.228  -0.056  1.00  0.00     0.003 A 
ATOM     15  C   UNL     1      -2.171   2.538   1.071  1.00  0.00     0.042 A 
ATOM     16  C   UNL     1      -3.510   2.333   0.715  1.00  0.00     0.026 A 
BRANCH  15  17
ATOM     17  N   UNL     1      -1.818   3.697   1.845  1.00  0.00    -0.324 N 
ATOM     18  H   UNL     1      -2.401   4.558   1.737  1.00  0.00     0.170 HD
BRANCH  17  19
ATOM     19  C   UNL     1      -0.785   3.717   2.841  1.00  0.00     0.227 A 
ATOM     20  N   UNL     1      -0.377   4.907   3.360  1.00  0.00    -0.221 NA
ATOM     21  N   UNL     1      -0.245   2.559   3.311  1.00  0.00    -0.221 NA
ATOM     22  C   UNL     1       0.577   4.961   4.325  1.00  0.00     0.117 A 
ATOM     23  C   UNL     1       0.712   2.571   4.275  1.00  0.00     0.117 A 
ATOM     24  C   UNL     1       1.148   3.784   4.805  1.00  0.00     0.040 A 
ENDBRANCH  17  19
ENDBRANCH  15  17
ENDBRANCH   9  11
ENDBRANCH   1   7
BRANCH   5  25
ATOM     25  O   UNL     1       2.434  -2.320  -4.701  1.00  0.00    -0.435 OA
BRANCH  25  26
ATOM     26  C   UNL     1       2.563  -0.937  -5.018  1.00  0.00     0.542 C 
ATOM     27  F   UNL     1       3.545  -0.784  -5.978  1.00  0.00    -0.167 F 
ATOM     28  F   UNL     1       1.368  -0.453  -5.518  1.00  0.00    -0.167 F 
ENDBRANCH  25  26
ENDBRANCH   5  25
TORSDOF 6
