REMARK SMILES O=C(c1c[nH]nc1-c1ccc(Cl)s1)N1CCN(CC2CC2)CC1
REMARK SMILES IDX 1 1 2 2 14 3 15 4 16 5 17 6 22 7 23 8 3 9 4 10 7 11 5 12
REMARK SMILES IDX 6 13 8 15 9 16 13 17 10 18 11 19 12 20 18 21 19 22 20 23
REMARK SMILES IDX 21 24
REMARK H PARENT 5 14
ROOT
ATOM      1  O   UNL     1      -2.643   0.467   2.923  1.00  0.00    -0.269 OA
ATOM      2  C   UNL     1      -2.279   0.223   1.741  1.00  0.00     0.257 C 
ATOM      3  N   UNL     1      -0.904  -0.125   1.473  1.00  0.00    -0.336 N 
ATOM      4  C   UNL     1      -0.535  -0.902   0.283  1.00  0.00     0.135 C 
ATOM      5  C   UNL     1       0.563  -1.911   0.635  1.00  0.00     0.106 C 
ATOM      6  N   UNL     1       1.715  -1.266   1.294  1.00  0.00    -0.300 NA
ATOM      7  C   UNL     1       1.296  -0.562   2.527  1.00  0.00     0.106 C 
ATOM      8  C   UNL     1       0.172   0.459   2.284  1.00  0.00     0.135 C 
ENDROOT
BRANCH   2   9
ATOM      9  C   UNL     1      -3.302   0.238   0.679  1.00  0.00     0.086 A 
ATOM     10  C   UNL     1      -4.526  -0.393   0.737  1.00  0.00     0.119 A 
ATOM     11  C   UNL     1      -3.249   0.792  -0.596  1.00  0.00     0.115 A 
ATOM     12  N   UNL     1      -5.143  -0.235  -0.447  1.00  0.00    -0.284 N 
ATOM     13  N   UNL     1      -4.381   0.481  -1.258  1.00  0.00    -0.174 NA
ATOM     14  H   UNL     1      -6.081  -0.613  -0.705  1.00  0.00     0.189 HD
BRANCH  11  15
ATOM     15  C   UNL     1      -2.206   1.663  -1.163  1.00  0.00     0.057 A 
ATOM     16  C   UNL     1      -1.994   1.875  -2.522  1.00  0.00     0.024 A 
ATOM     17  S   UNL     1      -1.139   2.635  -0.295  1.00  0.00    -0.122 S 
ATOM     18  C   UNL     1      -0.963   2.785  -2.787  1.00  0.00     0.033 A 
ATOM     19  C   UNL     1      -0.381   3.298  -1.638  1.00  0.00     0.094 A 
ATOM     20  Cl  UNL     1       0.931   4.456  -1.583  1.00  0.00    -0.072 Cl
ENDBRANCH  11  15
ENDBRANCH   2   9
BRANCH   6  21
ATOM     21  C   UNL     1       2.506  -0.422   0.370  1.00  0.00     0.088 C 
BRANCH  21  22
ATOM     22  C   UNL     1       3.954  -0.306   0.870  1.00  0.00     0.003 C 
ATOM     23  C   UNL     1       5.011  -0.154  -0.214  1.00  0.00     0.005 C 
ATOM     24  C   UNL     1       4.857  -1.478   0.518  1.00  0.00     0.005 C 
ENDBRANCH  21  22
ENDBRANCH   6  21
TORSDOF 4
