REMARK SMILES c1ccc(Nc2nc(OCC3CCCCC3)c3[nH]cnc3n2)cc1
REMARK SMILES IDX 6 1 7 2 8 3 17 4 18 5 19 6 20 7 21 8 22 9 5 11 4 13 1 14
REMARK SMILES IDX 2 15 24 16 3 17 23 18 9 19 10 20 11 21 12 22 16 23 13 24
REMARK SMILES IDX 15 25 14 26
REMARK H PARENT 18 10 5 12
ROOT
ATOM      1  C   UNL     1       1.693  -1.978  -1.147  1.00  0.00     0.232 A 
ATOM      2  N   UNL     1       0.741  -1.228  -0.500  1.00  0.00    -0.175 NA
ATOM      3  C   UNL     1       0.652  -1.199   0.863  1.00  0.00     0.245 A 
ATOM      4  C   UNL     1       1.554  -1.972   1.576  1.00  0.00     0.148 A 
ATOM      5  N   UNL     1       1.696  -2.135   2.895  1.00  0.00    -0.339 N 
ATOM      6  C   UNL     1       2.734  -3.003   3.001  1.00  0.00     0.199 A 
ATOM      7  N   UNL     1       3.249  -3.390   1.800  1.00  0.00    -0.217 NA
ATOM      8  C   UNL     1       2.478  -2.717   0.930  1.00  0.00     0.186 A 
ATOM      9  N   UNL     1       2.568  -2.743  -0.422  1.00  0.00    -0.191 NA
ATOM     10  H   UNL     1       1.140  -1.701   3.665  1.00  0.00     0.168 HD
ENDROOT
BRANCH   1  11
ATOM     11  N   UNL     1       1.752  -2.005  -2.580  1.00  0.00    -0.324 N 
ATOM     12  H   UNL     1       2.286  -2.784  -3.027  1.00  0.00     0.170 HD
BRANCH  11  13
ATOM     13  C   UNL     1       1.019  -1.107  -3.431  1.00  0.00     0.041 A 
ATOM     14  C   UNL     1      -0.382   0.621  -5.147  1.00  0.00     0.000 A 
ATOM     15  C   UNL     1      -0.181  -0.714  -5.509  1.00  0.00     0.002 A 
ATOM     16  C   UNL     1       0.129   1.101  -3.938  1.00  0.00     0.002 A 
ATOM     17  C   UNL     1       0.523  -1.572  -4.659  1.00  0.00     0.026 A 
ATOM     18  C   UNL     1       0.835   0.246  -3.086  1.00  0.00     0.026 A 
ENDBRANCH  11  13
ENDBRANCH   1  11
BRANCH   3  19
ATOM     19  O   UNL     1      -0.305  -0.420   1.516  1.00  0.00    -0.476 OA
BRANCH  19  20
ATOM     20  C   UNL     1      -1.239   0.392   0.810  1.00  0.00     0.235 C 
BRANCH  20  21
ATOM     21  C   UNL     1      -2.111   1.182   1.805  1.00  0.00     0.027 C 
ATOM     22  C   UNL     1      -3.248   1.944   1.090  1.00  0.00     0.007 C 
ATOM     23  C   UNL     1      -1.279   2.142   2.687  1.00  0.00     0.007 C 
ATOM     24  C   UNL     1      -2.738   3.172   0.321  1.00  0.00     0.000 C 
ATOM     25  C   UNL     1      -0.783   3.372   1.912  1.00  0.00     0.000 C 
ATOM     26  C   UNL     1      -1.946   4.109   1.239  1.00  0.00     0.000 C 
ENDBRANCH  20  21
ENDBRANCH  19  20
ENDBRANCH   3  19
TORSDOF 5
