REMARK SMILES N#Cc1ccsc1S(=O)(=O)Nc1cccc2c1NC(=O)C2
REMARK SMILES IDX 11 1 8 3 9 4 10 5 7 6 1 7 2 8 3 9 4 10 5 11 6 12 12 13 13 14
REMARK SMILES IDX 17 15 14 16 18 17 16 18 15 19 19 20 21 21 20 22
REMARK H PARENT 11 2 18 23
ROOT
ATOM      1  N   UNL     1      -1.265   1.391  -0.939  1.00  0.00    -0.277 N 
ATOM      2  H   UNL     1      -2.240   1.372  -0.569  1.00  0.00     0.180 HD
ENDROOT
BRANCH   1   3
ATOM      3  S   UNL     1      -0.391   2.880  -0.773  1.00  0.00     0.272 S 
ATOM      4  O   UNL     1      -1.157   3.813   0.121  1.00  0.00    -0.200 OA
ATOM      5  O   UNL     1      -0.230   3.515  -2.126  1.00  0.00    -0.200 OA
BRANCH   3   6
ATOM      6  C   UNL     1       1.185   2.575  -0.054  1.00  0.00     0.158 A 
ATOM      7  N   UNL     1      -0.377   0.544   2.425  1.00  0.00    -0.192 NA
ATOM      8  C   UNL     1       0.437   1.098   1.817  1.00  0.00     0.101 C 
ATOM      9  C   UNL     1       1.450   1.786   1.060  1.00  0.00     0.083 A 
ATOM     10  C   UNL     1       2.812   1.714   1.376  1.00  0.00     0.032 A 
ATOM     11  C   UNL     1       3.620   2.443   0.512  1.00  0.00     0.068 A 
ATOM     12  S   UNL     1       2.639   3.175  -0.643  1.00  0.00    -0.129 S 
ENDBRANCH   3   6
ENDBRANCH   1   3
BRANCH   1  13
ATOM     13  C   UNL     1      -0.651   0.173  -1.393  1.00  0.00     0.073 A 
ATOM     14  C   UNL     1       0.473   0.184  -2.249  1.00  0.00     0.029 A 
ATOM     15  C   UNL     1      -1.158  -1.076  -1.003  1.00  0.00     0.069 A 
ATOM     16  C   UNL     1       1.061  -1.021  -2.678  1.00  0.00     0.003 A 
ATOM     17  N   UNL     1      -2.250  -1.320  -0.131  1.00  0.00    -0.324 N 
ATOM     18  C   UNL     1      -0.576  -2.256  -1.425  1.00  0.00    -0.013 A 
ATOM     19  C   UNL     1       0.537  -2.254  -2.264  1.00  0.00     0.006 A 
ATOM     20  C   UNL     1      -2.325  -2.737  -0.030  1.00  0.00     0.228 C 
ATOM     21  C   UNL     1      -1.281  -3.439  -0.843  1.00  0.00     0.138 C 
ATOM     22  O   UNL     1      -3.183  -3.327   0.678  1.00  0.00    -0.274 OA
ATOM     23  H   UNL     1      -2.840  -0.626   0.378  1.00  0.00     0.170 HD
ENDBRANCH   1  13
TORSDOF 3
