REMARK SMILES C[C@@H]1OCC[C@@]1(C)NC(=O)C1CCN(c2ccc(C#N)cc2F)CC1
REMARK SMILES IDX 11 1 12 2 13 3 14 4 24 5 25 6 9 7 8 8 10 9 6 11 2 12 3 13
REMARK SMILES IDX 4 14 5 15 1 16 7 17 15 18 16 19 22 20 17 21 21 22 18 23
REMARK SMILES IDX 19 24 20 25 23 26
REMARK H PARENT 8 10
ROOT
ATOM      1  C   UNL     1       0.608   0.558   2.873  1.00  0.00     0.082 C 
ATOM      2  C   UNL     1       2.078   0.592   2.408  1.00  0.00     0.035 C 
ATOM      3  C   UNL     1       2.287  -0.192   1.107  1.00  0.00     0.117 C 
ATOM      4  N   UNL     1       1.608  -1.496   1.142  1.00  0.00    -0.369 N 
ATOM      5  C   UNL     1       0.960  -1.960   2.377  1.00  0.00     0.117 C 
ATOM      6  C   UNL     1       0.026  -0.882   2.949  1.00  0.00     0.035 C 
ENDROOT
BRANCH   1   7
ATOM      7  C   UNL     1      -0.245   1.486   2.032  1.00  0.00     0.223 C 
ATOM      8  N   UNL     1      -0.706   1.094   0.722  1.00  0.00    -0.348 N 
ATOM      9  O   UNL     1      -0.518   2.629   2.489  1.00  0.00    -0.275 OA
ATOM     10  H   UNL     1      -0.503   0.115   0.423  1.00  0.00     0.164 HD
BRANCH   8  11
ATOM     11  C   UNL     1      -1.430   1.977  -0.220  1.00  0.00     0.065 C 
ATOM     12  C   UNL     1      -1.879   1.155  -1.455  1.00  0.00     0.140 C 
ATOM     13  O   UNL     1      -3.073   0.490  -1.110  1.00  0.00    -0.376 OA
ATOM     14  C   UNL     1      -3.673   1.210  -0.053  1.00  0.00     0.163 C 
ATOM     15  C   UNL     1      -2.775   2.366   0.356  1.00  0.00     0.059 C 
ATOM     16  C   UNL     1      -2.130   1.968  -2.736  1.00  0.00     0.041 C 
ATOM     17  C   UNL     1      -0.549   3.197  -0.576  1.00  0.00     0.037 C 
ENDBRANCH   8  11
ENDBRANCH   1   7
BRANCH   4  18
ATOM     18  C   UNL     1       1.727  -2.379   0.010  1.00  0.00     0.073 A 
ATOM     19  C   UNL     1       1.360  -1.935  -1.271  1.00  0.00     0.030 A 
ATOM     20  C   UNL     1       2.216  -3.691   0.167  1.00  0.00     0.147 A 
ATOM     21  C   UNL     1       1.466  -2.786  -2.374  1.00  0.00     0.022 A 
ATOM     22  C   UNL     1       2.322  -4.540  -0.940  1.00  0.00     0.061 A 
ATOM     23  C   UNL     1       1.946  -4.090  -2.211  1.00  0.00     0.055 A 
ATOM     24  C   UNL     1       2.056  -4.967  -3.348  1.00  0.00     0.099 C 
ATOM     25  N   UNL     1       2.144  -5.671  -4.262  1.00  0.00    -0.192 NA
ATOM     26  F   UNL     1       2.619  -4.139   1.383  1.00  0.00    -0.205 F 
ENDBRANCH   4  18
TORSDOF 3
