REMARK SMILES COC(=O)c1ccc(Cn2cc(Cn3cccn3)nn2)cc1C
REMARK SMILES IDX 5 1 6 2 7 3 8 4 21 5 22 6 23 7 3 8 4 9 2 10 1 11 9 12 10 13
REMARK SMILES IDX 11 14 20 15 12 16 19 17 13 18 14 19 15 20 18 21 16 22 17 23
REMARK H PARENT
ROOT
ATOM      1  C   UNL     1      -0.396   1.450  -2.006  1.00  0.00     0.063 A 
ATOM      2  C   UNL     1      -1.426   1.252  -1.069  1.00  0.00     0.016 A 
ATOM      3  C   UNL     1      -1.238   1.553   0.280  1.00  0.00     0.006 A 
ATOM      4  C   UNL     1      -0.018   2.071   0.725  1.00  0.00    -0.026 A 
ATOM      5  C   UNL     1       1.020   2.271  -0.193  1.00  0.00     0.010 A 
ATOM      6  C   UNL     1       0.844   1.986  -1.560  1.00  0.00    -0.036 A 
ATOM      7  C   UNL     1       1.988   2.264  -2.501  1.00  0.00     0.045 C 
ENDROOT
BRANCH   1   8
ATOM      8  C   UNL     1      -0.661   1.080  -3.422  1.00  0.00     0.338 C 
ATOM      9  O   UNL     1       0.288   0.821  -4.212  1.00  0.00    -0.246 OA
BRANCH   8  10
ATOM     10  O   UNL     1      -1.982   0.988  -3.873  1.00  0.00    -0.465 OA
ATOM     11  C   UNL     1      -2.316   0.626  -5.208  1.00  0.00     0.282 C 
ENDBRANCH   8  10
ENDBRANCH   1   8
BRANCH   4  12
ATOM     12  C   UNL     1       0.202   2.336   2.188  1.00  0.00     0.181 C 
BRANCH  12  13
ATOM     13  N   UNL     1       0.752   1.146   2.826  1.00  0.00    -0.248 N 
ATOM     14  C   UNL     1       0.061   0.080   3.263  1.00  0.00     0.137 A 
ATOM     15  N   UNL     1       2.046   0.887   2.939  1.00  0.00    -0.067 NA
ATOM     16  C   UNL     1       1.002  -0.835   3.678  1.00  0.00     0.104 A 
ATOM     17  N   UNL     1       2.229  -0.320   3.458  1.00  0.00    -0.133 NA
BRANCH  16  18
ATOM     18  C   UNL     1       0.740  -2.231   4.144  1.00  0.00     0.203 C 
BRANCH  18  19
ATOM     19  N   UNL     1       0.582  -3.112   2.993  1.00  0.00    -0.267 N 
ATOM     20  C   UNL     1      -0.557  -3.323   2.309  1.00  0.00     0.109 A 
ATOM     21  N   UNL     1       1.583  -3.754   2.412  1.00  0.00    -0.181 NA
ATOM     22  C   UNL     1      -0.277  -4.156   1.248  1.00  0.00     0.042 A 
ATOM     23  C   UNL     1       1.079  -4.407   1.347  1.00  0.00     0.135 A 
ENDBRANCH  18  19
ENDBRANCH  16  18
ENDBRANCH  12  13
ENDBRANCH   4  12
TORSDOF 6
