REMARK SMILES CC1(C)NC(=O)C[C@H]1C(=O)N1CCC[C@@]1(C)c1ccccc1
REMARK SMILES IDX 9 1 10 2 8 3 2 4 4 5 5 6 7 7 6 8 1 9 3 10 11 12 12 13 15 14
REMARK SMILES IDX 13 15 14 16 16 17 17 18 18 19 22 20 19 21 21 22 20 23
REMARK H PARENT 4 11
ROOT
ATOM      1  C   UNL     1       0.689  -0.333  -0.862  1.00  0.00     0.229 C 
ATOM      2  O   UNL     1       1.548  -0.939  -1.560  1.00  0.00    -0.274 OA
ENDROOT
BRANCH   1   3
ATOM      3  C   UNL     1       1.192   0.819   0.009  1.00  0.00     0.113 C 
ATOM      4  C   UNL     1       0.442   2.208  -0.057  1.00  0.00     0.046 C 
ATOM      5  N   UNL     1      -0.029   2.441   1.300  1.00  0.00    -0.350 N 
ATOM      6  C   UNL     1       0.516   1.482   2.180  1.00  0.00     0.221 C 
ATOM      7  C   UNL     1       1.310   0.439   1.499  1.00  0.00     0.116 C 
ATOM      8  O   UNL     1       0.336   1.523   3.425  1.00  0.00    -0.275 OA
ATOM      9  C   UNL     1      -0.747   2.275  -1.029  1.00  0.00     0.035 C 
ATOM     10  C   UNL     1       1.434   3.332  -0.421  1.00  0.00     0.035 C 
ATOM     11  H   UNL     1      -0.570   3.279   1.609  1.00  0.00     0.164 HD
ENDBRANCH   1   3
BRANCH   1  12
ATOM     12  N   UNL     1      -0.695  -0.752  -0.967  1.00  0.00    -0.333 N 
ATOM     13  C   UNL     1      -1.286  -0.859  -2.300  1.00  0.00     0.120 C 
ATOM     14  C   UNL     1      -1.400  -1.614   0.005  1.00  0.00     0.065 C 
ATOM     15  C   UNL     1      -2.205  -2.066  -2.276  1.00  0.00     0.024 C 
ATOM     16  C   UNL     1      -2.515  -2.319  -0.810  1.00  0.00     0.035 C 
ATOM     17  C   UNL     1      -2.084  -0.732   1.074  1.00  0.00     0.040 C 
BRANCH  14  18
ATOM     18  C   UNL     1      -0.458  -2.683   0.594  1.00  0.00    -0.023 A 
ATOM     19  C   UNL     1       0.333  -3.466  -0.274  1.00  0.00     0.006 A 
ATOM     20  C   UNL     1      -0.405  -2.973   1.979  1.00  0.00     0.006 A 
ATOM     21  C   UNL     1       1.177  -4.463   0.222  1.00  0.00     0.000 A 
ATOM     22  C   UNL     1       0.443  -3.971   2.469  1.00  0.00     0.000 A 
ATOM     23  C   UNL     1       1.235  -4.712   1.593  1.00  0.00     0.000 A 
ENDBRANCH  14  18
ENDBRANCH   1  12
TORSDOF 3
