REMARK SMILES C[C@H](C(=O)NC1(Cc2ccccc2)CCC1)n1ccc(C(F)(F)F)n1
REMARK SMILES IDX 3 1 4 2 5 3 2 5 1 6 17 7 18 8 25 9 19 10 20 11 21 12 22 13
REMARK SMILES IDX 23 14 24 15 6 16 14 17 16 18 15 19 7 20 8 21 9 22 13 23
REMARK SMILES IDX 10 24 12 25 11 26
REMARK H PARENT 5 4
ROOT
ATOM      1  C   UNL     1      -0.448  -0.443   0.165  1.00  0.00     0.245 C 
ATOM      2  O   UNL     1       0.056  -1.500   0.634  1.00  0.00    -0.273 OA
ATOM      3  N   UNL     1      -0.425   0.772   0.931  1.00  0.00    -0.348 N 
ATOM      4  H   UNL     1      -0.783   1.642   0.476  1.00  0.00     0.164 HD
ENDROOT
BRANCH   1   5
ATOM      5  C   UNL     1      -1.025  -0.443  -1.226  1.00  0.00     0.193 C 
ATOM      6  C   UNL     1       0.063  -0.128  -2.255  1.00  0.00     0.044 C 
BRANCH   5   7
ATOM      7  N   UNL     1      -1.662  -1.730  -1.518  1.00  0.00    -0.260 N 
ATOM      8  C   UNL     1      -2.973  -2.006  -1.373  1.00  0.00     0.110 A 
ATOM      9  N   UNL     1      -1.007  -2.829  -1.863  1.00  0.00    -0.168 NA
ATOM     10  C   UNL     1      -3.174  -3.340  -1.659  1.00  0.00     0.055 A 
ATOM     11  C   UNL     1      -1.915  -3.817  -1.977  1.00  0.00     0.166 A 
BRANCH  11  12
ATOM     12  C   UNL     1      -1.569  -5.240  -2.280  1.00  0.00     0.435 C 
ATOM     13  F   UNL     1      -0.369  -5.299  -2.967  1.00  0.00    -0.164 F 
ATOM     14  F   UNL     1      -1.450  -5.946  -1.098  1.00  0.00    -0.164 F 
ATOM     15  F   UNL     1      -2.560  -5.813  -3.057  1.00  0.00    -0.164 F 
ENDBRANCH  11  12
ENDBRANCH   5   7
ENDBRANCH   1   5
BRANCH   3  16
ATOM     16  C   UNL     1       0.122   0.854   2.295  1.00  0.00     0.044 C 
ATOM     17  C   UNL     1      -0.392   2.086   3.059  1.00  0.00     0.029 C 
ATOM     18  C   UNL     1      -0.634  -0.049   3.278  1.00  0.00     0.029 C 
ATOM     19  C   UNL     1      -1.140   1.177   4.024  1.00  0.00     0.005 C 
BRANCH  16  20
ATOM     20  C   UNL     1       1.660   0.676   2.344  1.00  0.00     0.063 C 
BRANCH  20  21
ATOM     21  C   UNL     1       2.371   1.593   1.379  1.00  0.00    -0.046 A 
ATOM     22  C   UNL     1       2.732   2.896   1.762  1.00  0.00     0.004 A 
ATOM     23  C   UNL     1       2.657   1.159   0.072  1.00  0.00     0.004 A 
ATOM     24  C   UNL     1       3.361   3.751   0.851  1.00  0.00     0.000 A 
ATOM     25  C   UNL     1       3.283   2.018  -0.836  1.00  0.00     0.000 A 
ATOM     26  C   UNL     1       3.634   3.313  -0.447  1.00  0.00     0.000 A 
ENDBRANCH  20  21
ENDBRANCH  16  20
ENDBRANCH   3  16
TORSDOF 6
