REMARK SMILES O=C(NCC1CCOCC1)c1cnc(Nc2ccccc2)nc1C(F)(F)F
REMARK SMILES IDX 11 1 12 2 13 3 14 4 22 5 23 6 2 7 1 8 3 9 4 11 5 12 6 13
REMARK SMILES IDX 10 14 7 15 9 16 8 17 24 18 25 19 26 20 27 21 15 22 16 24
REMARK SMILES IDX 17 25 21 26 18 27 20 28 19 29
REMARK H PARENT 3 10 15 23
ROOT
ATOM      1  C   UNL     1      -0.656   0.134  -0.651  1.00  0.00     0.089 A 
ATOM      2  C   UNL     1      -1.231   0.078  -1.927  1.00  0.00     0.131 A 
ATOM      3  N   UNL     1      -0.453  -0.088  -3.025  1.00  0.00    -0.220 NA
ATOM      4  C   UNL     1       0.897  -0.182  -2.921  1.00  0.00     0.227 A 
ATOM      5  N   UNL     1       1.481  -0.118  -1.697  1.00  0.00    -0.207 NA
ATOM      6  C   UNL     1       0.757   0.057  -0.558  1.00  0.00     0.162 A 
ENDROOT
BRANCH   1   7
ATOM      7  C   UNL     1      -1.553   0.278   0.517  1.00  0.00     0.255 C 
ATOM      8  O   UNL     1      -2.438   1.176   0.501  1.00  0.00    -0.269 OA
ATOM      9  N   UNL     1      -1.484  -0.645   1.614  1.00  0.00    -0.352 N 
ATOM     10  H   UNL     1      -0.890  -1.497   1.505  1.00  0.00     0.163 HD
BRANCH   9  11
ATOM     11  C   UNL     1      -2.428  -0.622   2.735  1.00  0.00     0.120 C 
BRANCH  11  12
ATOM     12  C   UNL     1      -1.935   0.246   3.912  1.00  0.00     0.013 C 
ATOM     13  C   UNL     1      -1.877   1.744   3.575  1.00  0.00     0.034 C 
ATOM     14  C   UNL     1      -0.579  -0.235   4.475  1.00  0.00     0.034 C 
ATOM     15  C   UNL     1      -1.403   2.564   4.798  1.00  0.00     0.160 C 
ATOM     16  C   UNL     1       0.106   0.869   5.302  1.00  0.00     0.160 C 
ATOM     17  O   UNL     1      -0.849   1.765   5.834  1.00  0.00    -0.381 OA
ENDBRANCH  11  12
ENDBRANCH   9  11
ENDBRANCH   1   7
BRANCH   6  18
ATOM     18  C   UNL     1       1.512   0.161   0.744  1.00  0.00     0.434 C 
ATOM     19  F   UNL     1       2.824   0.527   0.501  1.00  0.00    -0.164 F 
ATOM     20  F   UNL     1       1.514  -1.063   1.384  1.00  0.00    -0.164 F 
ATOM     21  F   UNL     1       0.950   1.118   1.567  1.00  0.00    -0.164 F 
ENDBRANCH   6  18
BRANCH   4  22
ATOM     22  N   UNL     1       1.712  -0.396  -4.083  1.00  0.00    -0.324 N 
ATOM     23  H   UNL     1       2.683  -0.754  -3.932  1.00  0.00     0.170 HD
BRANCH  22  24
ATOM     24  C   UNL     1       1.246  -0.256  -5.435  1.00  0.00     0.041 A 
ATOM     25  C   UNL     1       1.759  -1.101  -6.432  1.00  0.00     0.026 A 
ATOM     26  C   UNL     1       0.332   0.753  -5.795  1.00  0.00     0.026 A 
ATOM     27  C   UNL     1       1.338  -0.967  -7.759  1.00  0.00     0.002 A 
ATOM     28  C   UNL     1      -0.086   0.883  -7.124  1.00  0.00     0.002 A 
ATOM     29  C   UNL     1       0.412   0.021  -8.104  1.00  0.00     0.000 A 
ENDBRANCH  22  24
ENDBRANCH   4  22
TORSDOF 6
