REMARK SMILES OCC[C@H]1CN(C[C@]23C[C@](c4nn[nH]n4)(CO2)C3)c2ccccc21
REMARK SMILES IDX 4 1 5 2 6 3 19 4 20 5 21 6 22 7 23 8 24 9 3 10 2 11 1 12
REMARK SMILES IDX 7 14 8 15 9 16 18 17 17 18 10 19 16 20 11 21 12 22 15 23
REMARK SMILES IDX 13 24 14 25
REMARK H PARENT 1 13 14 26
ROOT
ATOM      1  C   UNL     1       1.236   0.883  -1.919  1.00  0.00     0.043 C 
ATOM      2  C   UNL     1       1.459   0.306  -0.488  1.00  0.00     0.125 C 
ATOM      3  N   UNL     1       0.676   1.147   0.416  1.00  0.00    -0.368 N 
ATOM      4  C   UNL     1       0.061   2.181  -0.334  1.00  0.00     0.040 A 
ATOM      5  C   UNL     1      -0.750   3.213   0.150  1.00  0.00     0.026 A 
ATOM      6  C   UNL     1      -1.291   4.125  -0.770  1.00  0.00     0.002 A 
ATOM      7  C   UNL     1      -1.017   3.993  -2.144  1.00  0.00     0.000 A 
ATOM      8  C   UNL     1      -0.191   2.954  -2.602  1.00  0.00     0.006 A 
ATOM      9  C   UNL     1       0.355   2.069  -1.667  1.00  0.00    -0.020 A 
ENDROOT
BRANCH   1  10
ATOM     10  C   UNL     1       2.552   1.294  -2.616  1.00  0.00     0.038 C 
BRANCH  10  11
ATOM     11  C   UNL     1       3.322   0.093  -3.173  1.00  0.00     0.156 C 
BRANCH  11  12
ATOM     12  O   UNL     1       3.809  -0.709  -2.133  1.00  0.00    -0.396 OA
ATOM     13  H   UNL     1       4.281  -1.466  -2.567  1.00  0.00     0.210 HD
ENDBRANCH  11  12
ENDBRANCH  10  11
ENDBRANCH   1  10
BRANCH   3  14
ATOM     14  C   UNL     1       0.512   0.888   1.847  1.00  0.00     0.152 C 
BRANCH  14  15
ATOM     15  C   UNL     1      -0.733   0.035   2.101  1.00  0.00     0.088 C 
ATOM     16  C   UNL     1      -1.101  -0.296   3.540  1.00  0.00     0.055 C 
ATOM     17  C   UNL     1      -2.118   0.629   1.888  1.00  0.00     0.055 C 
ATOM     18  O   UNL     1      -0.785  -1.217   1.439  1.00  0.00    -0.372 OA
ATOM     19  C   UNL     1      -2.420  -0.519   2.829  1.00  0.00     0.063 C 
ATOM     20  C   UNL     1      -2.033  -1.687   1.938  1.00  0.00     0.176 C 
BRANCH  19  21
ATOM     21  C   UNL     1      -3.698  -0.541   3.603  1.00  0.00     0.183 A 
ATOM     22  N   UNL     1      -3.830  -1.077   4.832  1.00  0.00    -0.113 NA
ATOM     23  N   UNL     1      -4.880  -0.108   3.126  1.00  0.00    -0.139 NA
ATOM     24  N   UNL     1      -5.116  -0.950   5.118  1.00  0.00    -0.050 NA
ATOM     25  N   UNL     1      -5.731  -0.373   4.101  1.00  0.00    -0.177 N 
ATOM     26  H   UNL     1      -6.753  -0.161   4.069  1.00  0.00     0.216 HD
ENDBRANCH  19  21
ENDBRANCH  14  15
ENDBRANCH   3  14
TORSDOF 6
