REMARK SMILES O=C(Nc1cccc(CCO)c1)c1c[nH]c2ncnc(O)c12
REMARK SMILES IDX 4 1 5 2 6 3 7 4 8 5 12 6 3 7 1 8 2 9 13 11 14 12 22 13 15 14
REMARK SMILES IDX 20 15 16 16 19 17 17 18 18 19 21 21 9 23 10 24 11 25
REMARK H PARENT 3 10 15 20 21 22 11 26
ROOT
ATOM      1  C   UNL     1      -1.548  -1.099  -0.247  1.00  0.00     0.041 A 
ATOM      2  C   UNL     1      -2.569  -2.050  -0.392  1.00  0.00     0.026 A 
ATOM      3  C   UNL     1      -2.691  -2.783  -1.574  1.00  0.00     0.002 A 
ATOM      4  C   UNL     1      -1.788  -2.583  -2.620  1.00  0.00     0.004 A 
ATOM      5  C   UNL     1      -0.752  -1.644  -2.490  1.00  0.00    -0.044 A 
ATOM      6  C   UNL     1      -0.627  -0.917  -1.295  1.00  0.00     0.030 A 
ENDROOT
BRANCH   1   7
ATOM      7  N   UNL     1      -1.427  -0.379   0.992  1.00  0.00    -0.322 N 
ATOM      8  O   UNL     1      -0.878   1.687   0.047  1.00  0.00    -0.269 OA
ATOM      9  C   UNL     1      -0.961   0.979   1.086  1.00  0.00     0.258 C 
ATOM     10  H   UNL     1      -1.758  -0.857   1.858  1.00  0.00     0.170 HD
BRANCH   9  11
ATOM     11  C   UNL     1      -0.637   1.574   2.400  1.00  0.00     0.072 A 
ATOM     12  C   UNL     1      -1.136   1.159   3.638  1.00  0.00     0.099 A 
ATOM     13  C   UNL     1       0.177   2.666   2.683  1.00  0.00     0.093 A 
ATOM     14  N   UNL     1      -0.667   1.946   4.632  1.00  0.00    -0.345 N 
ATOM     15  C   UNL     1       0.992   3.501   1.914  1.00  0.00     0.224 A 
ATOM     16  C   UNL     1       0.123   2.849   4.036  1.00  0.00     0.145 A 
ATOM     17  N   UNL     1       1.680   4.491   2.555  1.00  0.00    -0.201 NA
ATOM     18  N   UNL     1       0.813   3.833   4.663  1.00  0.00    -0.218 NA
ATOM     19  C   UNL     1       1.592   4.663   3.910  1.00  0.00     0.228 A 
ATOM     20  H   UNL     1      -0.880   1.866   5.651  1.00  0.00     0.167 HD
BRANCH  15  21
ATOM     21  O   UNL     1       1.126   3.335   0.541  1.00  0.00    -0.493 OA
ATOM     22  H   UNL     1       1.726   3.946  -0.000  1.00  0.00     0.295 HD
ENDBRANCH  15  21
ENDBRANCH   9  11
ENDBRANCH   1   7
BRANCH   5  23
ATOM     23  C   UNL     1       0.252  -1.465  -3.600  1.00  0.00     0.063 C 
BRANCH  23  24
ATOM     24  C   UNL     1       1.385  -2.486  -3.493  1.00  0.00     0.161 C 
BRANCH  24  25
ATOM     25  O   UNL     1       2.117  -2.272  -2.318  1.00  0.00    -0.396 OA
ATOM     26  H   UNL     1       2.825  -2.967  -2.305  1.00  0.00     0.210 HD
ENDBRANCH  24  25
ENDBRANCH  23  24
ENDBRANCH   5  23
TORSDOF 6
