REMARK SMILES Cc1cccc(N(C)C(=O)c2cc(C)n(C(C)(C)C)n2)c1C
REMARK SMILES IDX 9 1 10 2 11 3 13 4 12 5 15 6 20 7 14 8 16 9 17 10 18 11
REMARK SMILES IDX 19 12 7 13 8 14 6 15 5 16 21 17 4 18 2 19 3 20 22 21 1 22
REMARK H PARENT
ROOT
ATOM      1  C   UNL     1      -0.836   0.123  -1.693  1.00  0.00     0.278 C 
ATOM      2  O   UNL     1      -1.685   0.911  -2.194  1.00  0.00    -0.267 OA
ENDROOT
BRANCH   1   3
ATOM      3  C   UNL     1      -0.148   0.518  -0.449  1.00  0.00     0.151 A 
ATOM      4  C   UNL     1       0.573   1.643   1.278  1.00  0.00     0.037 A 
ATOM      5  C   UNL     1      -0.119   1.787   0.090  1.00  0.00     0.059 A 
ATOM      6  N   UNL     1       0.946   0.341   1.421  1.00  0.00    -0.264 N 
ATOM      7  N   UNL     1       0.482  -0.336   0.376  1.00  0.00    -0.167 NA
ATOM      8  C   UNL     1       0.891   2.786   2.196  1.00  0.00     0.066 C 
BRANCH   6   9
ATOM      9  C   UNL     1       1.628  -0.330   2.557  1.00  0.00     0.055 C 
ATOM     10  C   UNL     1       2.112  -1.734   2.119  1.00  0.00     0.036 C 
ATOM     11  C   UNL     1       2.868   0.465   3.025  1.00  0.00     0.036 C 
ATOM     12  C   UNL     1       0.637  -0.503   3.721  1.00  0.00     0.036 C 
ENDBRANCH   6   9
ENDBRANCH   1   3
BRANCH   1  13
ATOM     13  N   UNL     1      -0.595  -1.149  -2.325  1.00  0.00    -0.310 N 
ATOM     14  C   UNL     1       0.753  -1.726  -2.383  1.00  0.00     0.153 C 
BRANCH  13  15
ATOM     15  C   UNL     1      -1.676  -1.802  -3.014  1.00  0.00     0.047 A 
ATOM     16  C   UNL     1      -2.699  -2.384  -2.254  1.00  0.00     0.026 A 
ATOM     17  C   UNL     1      -1.725  -1.859  -4.431  1.00  0.00    -0.024 A 
ATOM     18  C   UNL     1      -3.747  -3.053  -2.877  1.00  0.00     0.002 A 
ATOM     19  C   UNL     1      -2.763  -2.601  -5.057  1.00  0.00    -0.046 A 
ATOM     20  C   UNL     1      -3.775  -3.171  -4.267  1.00  0.00     0.004 A 
ATOM     21  C   UNL     1      -0.657  -1.180  -5.258  1.00  0.00     0.047 C 
ATOM     22  C   UNL     1      -2.833  -2.767  -6.555  1.00  0.00     0.044 C 
ENDBRANCH  13  15
ENDBRANCH   1  13
TORSDOF 4
