REMARK SMILES COc1nc(C)cc(N2CCN(C(=O)C3CCCCC3)CC2)n1
REMARK SMILES IDX 3 1 4 2 5 3 6 4 7 5 8 6 23 7 2 8 1 9 9 10 10 11 22 12 11 13
REMARK SMILES IDX 21 14 12 15 13 16 14 17 15 18 16 19 20 20 17 21 19 22 18 23
REMARK H PARENT
ROOT
ATOM      1  C   UNL     1      -1.618   2.660  -4.868  1.00  0.00     0.318 A 
ATOM      2  N   UNL     1      -0.370   2.928  -5.332  1.00  0.00    -0.200 NA
ATOM      3  C   UNL     1       0.729   2.697  -4.567  1.00  0.00     0.047 A 
ATOM      4  C   UNL     1       2.091   2.991  -5.111  1.00  0.00     0.067 C 
ATOM      5  C   UNL     1       0.579   2.181  -3.276  1.00  0.00     0.070 A 
ATOM      6  C   UNL     1      -0.714   1.923  -2.799  1.00  0.00     0.136 A 
ATOM      7  N   UNL     1      -1.778   2.158  -3.613  1.00  0.00    -0.178 NA
ENDROOT
BRANCH   1   8
ATOM      8  O   UNL     1      -2.722   2.904  -5.688  1.00  0.00    -0.467 OA
ATOM      9  C   UNL     1      -4.059   2.651  -5.272  1.00  0.00     0.282 C 
ENDBRANCH   1   8
BRANCH   6  10
ATOM     10  N   UNL     1      -0.931   1.372  -1.486  1.00  0.00    -0.353 N 
ATOM     11  C   UNL     1      -1.982   0.362  -1.304  1.00  0.00     0.139 C 
ATOM     12  C   UNL     1      -0.176   1.847  -0.320  1.00  0.00     0.139 C 
ATOM     13  C   UNL     1      -2.097  -0.092   0.159  1.00  0.00     0.141 C 
ATOM     14  C   UNL     1       0.320   0.645   0.486  1.00  0.00     0.141 C 
ATOM     15  N   UNL     1      -0.765  -0.319   0.746  1.00  0.00    -0.339 N 
ATOM     16  C   UNL     1      -0.593  -1.371   1.724  1.00  0.00     0.225 C 
ATOM     17  O   UNL     1      -1.611  -1.901   2.250  1.00  0.00    -0.275 OA
BRANCH  16  18
ATOM     18  C   UNL     1       0.778  -1.840   2.173  1.00  0.00     0.078 C 
ATOM     19  C   UNL     1       1.115  -1.237   3.560  1.00  0.00     0.013 C 
ATOM     20  C   UNL     1       0.878  -3.390   2.149  1.00  0.00     0.013 C 
ATOM     21  C   UNL     1       2.173  -2.071   4.288  1.00  0.00     0.001 C 
ATOM     22  C   UNL     1       0.645  -4.008   3.534  1.00  0.00     0.001 C 
ATOM     23  C   UNL     1       1.679  -3.506   4.562  1.00  0.00     0.000 C 
ENDBRANCH  16  18
ENDBRANCH   6  10
TORSDOF 3
