REMARK SMILES O=C(N[C@@H](c1cccnc1)C1CC1)c1cc(-c2ccccc2)[nH]n1
REMARK SMILES IDX 1 1 2 2 3 3 14 5 15 6 24 7 16 8 23 9 17 11 18 12 22 13 19 14
REMARK SMILES IDX 21 15 20 16 4 17 5 18 6 19 10 20 7 21 9 22 8 23 11 24 12 25
REMARK SMILES IDX 13 26
REMARK H PARENT 3 4 23 10
ROOT
ATOM      1  O   UNL     1      -1.578  -1.241  -1.043  1.00  0.00    -0.267 OA
ATOM      2  C   UNL     1      -0.782  -0.345  -0.649  1.00  0.00     0.272 C 
ATOM      3  N   UNL     1      -0.995   0.294   0.620  1.00  0.00    -0.344 N 
ATOM      4  H   UNL     1      -0.425   1.133   0.871  1.00  0.00     0.164 HD
ENDROOT
BRANCH   2   5
ATOM      5  C   UNL     1       0.352   0.030  -1.511  1.00  0.00     0.150 A 
ATOM      6  C   UNL     1       1.375   0.910  -1.204  1.00  0.00     0.064 A 
ATOM      7  N   UNL     1       0.549  -0.485  -2.740  1.00  0.00    -0.170 NA
ATOM      8  C   UNL     1       2.190   0.894  -2.324  1.00  0.00     0.066 A 
ATOM      9  N   UNL     1       1.659   0.044  -3.228  1.00  0.00    -0.277 N 
ATOM     10  H   UNL     1       2.049  -0.205  -4.163  1.00  0.00     0.190 HD
BRANCH   8  11
ATOM     11  C   UNL     1       3.447   1.663  -2.514  1.00  0.00    -0.000 A 
ATOM     12  C   UNL     1       3.999   1.834  -3.799  1.00  0.00     0.010 A 
ATOM     13  C   UNL     1       4.112   2.234  -1.411  1.00  0.00     0.010 A 
ATOM     14  C   UNL     1       5.188   2.551  -3.971  1.00  0.00     0.001 A 
ATOM     15  C   UNL     1       5.299   2.950  -1.590  1.00  0.00     0.001 A 
ATOM     16  C   UNL     1       5.838   3.107  -2.868  1.00  0.00     0.000 A 
ENDBRANCH   8  11
ENDBRANCH   2   5
BRANCH   3  17
ATOM     17  C   UNL     1      -1.980  -0.207   1.584  1.00  0.00     0.117 C 
BRANCH  17  18
ATOM     18  C   UNL     1      -1.512  -1.519   2.172  1.00  0.00    -0.007 A 
ATOM     19  C   UNL     1      -2.384  -2.615   2.255  1.00  0.00     0.009 A 
ATOM     20  C   UNL     1      -0.209  -1.658   2.683  1.00  0.00     0.116 A 
ATOM     21  C   UNL     1      -1.948  -3.816   2.818  1.00  0.00     0.020 A 
ATOM     22  N   UNL     1       0.191  -2.838   3.227  1.00  0.00    -0.264 NA
ATOM     23  C   UNL     1      -0.642  -3.910   3.301  1.00  0.00     0.111 A 
ENDBRANCH  17  18
BRANCH  17  24
ATOM     24  C   UNL     1      -2.175   0.816   2.719  1.00  0.00     0.016 C 
ATOM     25  C   UNL     1      -3.193   1.911   2.440  1.00  0.00     0.006 C 
ATOM     26  C   UNL     1      -3.532   0.787   3.407  1.00  0.00     0.006 C 
ENDBRANCH  17  24
ENDBRANCH   3  17
TORSDOF 5
