REMARK SMILES O=C(Nc1ccc(OC(F)F)cc1)c1ccc(Nc2ncccn2)cc1
REMARK SMILES IDX 4 1 5 2 6 3 7 4 12 5 13 6 3 7 1 8 2 9 14 11 15 12 26 13
REMARK SMILES IDX 16 14 25 15 17 16 18 17 19 19 20 20 24 21 21 22 23 23 22 24
REMARK SMILES IDX 8 25 9 26 10 27 11 28
REMARK H PARENT 3 10 18 18
ROOT
ATOM      1  C   UNL     1       0.972   2.199   0.997  1.00  0.00     0.041 A 
ATOM      2  C   UNL     1       0.935   2.741   2.290  1.00  0.00     0.030 A 
ATOM      3  C   UNL     1       1.790   3.787   2.645  1.00  0.00     0.049 A 
ATOM      4  C   UNL     1       2.707   4.302   1.721  1.00  0.00     0.126 A 
ATOM      5  C   UNL     1       2.762   3.747   0.429  1.00  0.00     0.049 A 
ATOM      6  C   UNL     1       1.906   2.700   0.073  1.00  0.00     0.030 A 
ENDROOT
BRANCH   1   7
ATOM      7  N   UNL     1       0.096   1.108   0.662  1.00  0.00    -0.322 N 
ATOM      8  O   UNL     1      -0.452   1.815  -1.496  1.00  0.00    -0.269 OA
ATOM      9  C   UNL     1      -0.411   0.868  -0.662  1.00  0.00     0.255 C 
ATOM     10  H   UNL     1      -0.280   0.527   1.444  1.00  0.00     0.170 HD
BRANCH   9  11
ATOM     11  C   UNL     1      -0.935  -0.465  -1.046  1.00  0.00     0.040 A 
ATOM     12  C   UNL     1      -0.577  -1.618  -0.324  1.00  0.00     0.016 A 
ATOM     13  C   UNL     1      -1.779  -0.600  -2.163  1.00  0.00     0.016 A 
ATOM     14  C   UNL     1      -1.071  -2.871  -0.695  1.00  0.00     0.027 A 
ATOM     15  C   UNL     1      -2.272  -1.855  -2.533  1.00  0.00     0.027 A 
ATOM     16  C   UNL     1      -1.942  -2.997  -1.791  1.00  0.00     0.041 A 
BRANCH  16  17
ATOM     17  N   UNL     1      -2.443  -4.278  -2.207  1.00  0.00    -0.324 N 
ATOM     18  H   UNL     1      -2.635  -4.425  -3.224  1.00  0.00     0.170 HD
BRANCH  17  19
ATOM     19  C   UNL     1      -2.804  -5.335  -1.306  1.00  0.00     0.227 A 
ATOM     20  N   UNL     1      -2.948  -5.098   0.027  1.00  0.00    -0.221 NA
ATOM     21  N   UNL     1      -3.057  -6.578  -1.798  1.00  0.00    -0.221 NA
ATOM     22  C   UNL     1      -3.318  -6.088   0.880  1.00  0.00     0.117 A 
ATOM     23  C   UNL     1      -3.429  -7.595  -0.978  1.00  0.00     0.117 A 
ATOM     24  C   UNL     1      -3.566  -7.369   0.391  1.00  0.00     0.040 A 
ENDBRANCH  17  19
ENDBRANCH  16  17
ENDBRANCH   9  11
ENDBRANCH   1   7
BRANCH   4  25
ATOM     25  O   UNL     1       3.542   5.354   2.128  1.00  0.00    -0.435 OA
BRANCH  25  26
ATOM     26  C   UNL     1       4.503   5.996   1.295  1.00  0.00     0.542 C 
ATOM     27  F   UNL     1       5.203   6.922   2.045  1.00  0.00    -0.167 F 
ATOM     28  F   UNL     1       3.865   6.650   0.256  1.00  0.00    -0.167 F 
ENDBRANCH  25  26
ENDBRANCH   4  25
TORSDOF 6
