REMARK SMILES CN1CCC2(CCN(C(=O)c3ccc4cccnn34)CC2)C1=O
REMARK SMILES IDX 1 1 2 2 3 3 4 4 5 5 6 6 7 7 8 8 20 9 21 10 9 11 10 12 22 13
REMARK SMILES IDX 23 14 11 15 12 16 19 17 13 18 18 19 14 20 17 21 15 22 16 23
REMARK H PARENT
ROOT
ATOM      1  C   UNL     1      -2.574  -3.086  -1.146  1.00  0.00     0.146 C 
ATOM      2  N   UNL     1      -2.615  -2.019  -0.153  1.00  0.00    -0.345 N 
ATOM      3  C   UNL     1      -3.048  -2.186   1.219  1.00  0.00     0.120 C 
ATOM      4  C   UNL     1      -2.979  -0.782   1.844  1.00  0.00     0.038 C 
ATOM      5  C   UNL     1      -2.071   0.089   0.921  1.00  0.00     0.054 C 
ATOM      6  C   UNL     1      -0.627   0.211   1.505  1.00  0.00     0.038 C 
ATOM      7  C   UNL     1       0.039   1.578   1.259  1.00  0.00     0.121 C 
ATOM      8  N   UNL     1      -0.415   2.186   0.002  1.00  0.00    -0.337 N 
ATOM      9  C   UNL     1      -1.855   2.377  -0.223  1.00  0.00     0.121 C 
ATOM     10  C   UNL     1      -2.710   1.480   0.689  1.00  0.00     0.038 C 
ATOM     11  C   UNL     1       0.512   2.925  -0.816  1.00  0.00     0.272 C 
ATOM     12  O   UNL     1       0.183   4.061  -1.256  1.00  0.00    -0.267 OA
ATOM     13  C   UNL     1      -2.058  -0.732  -0.332  1.00  0.00     0.228 C 
ATOM     14  O   UNL     1      -1.555  -0.359  -1.426  1.00  0.00    -0.274 OA
ENDROOT
BRANCH  11  15
ATOM     15  C   UNL     1       1.847   2.394  -1.154  1.00  0.00     0.130 A 
ATOM     16  C   UNL     1       2.970   3.160  -1.452  1.00  0.00     0.036 A 
ATOM     17  N   UNL     1       2.169   1.094  -1.280  1.00  0.00    -0.228 N 
ATOM     18  C   UNL     1       4.005   2.276  -1.747  1.00  0.00     0.031 A 
ATOM     19  N   UNL     1       1.379   0.029  -1.156  1.00  0.00    -0.176 NA
ATOM     20  C   UNL     1       3.460   1.014  -1.632  1.00  0.00     0.066 A 
ATOM     21  C   UNL     1       1.894  -1.216  -1.359  1.00  0.00     0.134 A 
ATOM     22  C   UNL     1       4.055  -0.223  -1.857  1.00  0.00     0.030 A 
ATOM     23  C   UNL     1       3.249  -1.361  -1.710  1.00  0.00     0.024 A 
ENDBRANCH  11  15
TORSDOF 1
