REMARK SMILES O=C(c1ccc2cc(-c3ccccc3)[nH]c2c1)N1CC(NC2CCOCC2)C1
REMARK SMILES IDX 1 1 2 2 18 3 19 4 20 5 28 6 3 7 4 8 17 9 5 10 16 11 6 12
REMARK SMILES IDX 15 13 7 14 8 15 9 17 10 18 14 19 11 20 13 21 12 22 21 23
REMARK SMILES IDX 22 25 23 26 27 27 24 28 26 29 25 30
REMARK H PARENT 15 16 21 24
ROOT
ATOM      1  O   UNL     1       4.293   1.616   1.893  1.00  0.00    -0.269 OA
ATOM      2  C   UNL     1       3.231   1.216   1.344  1.00  0.00     0.254 C 
ATOM      3  N   UNL     1       3.290   0.089   0.466  1.00  0.00    -0.335 N 
ATOM      4  C   UNL     1       4.344  -0.832  -0.001  1.00  0.00     0.140 C 
ATOM      5  C   UNL     1       3.430  -1.782  -0.708  1.00  0.00     0.093 C 
ATOM      6  C   UNL     1       2.370  -0.833  -0.230  1.00  0.00     0.140 C 
ENDROOT
BRANCH   2   7
ATOM      7  C   UNL     1       1.952   1.886   1.661  1.00  0.00     0.042 A 
ATOM      8  C   UNL     1       1.750   2.438   2.955  1.00  0.00     0.014 A 
ATOM      9  C   UNL     1       0.935   2.010   0.687  1.00  0.00     0.040 A 
ATOM     10  C   UNL     1       0.542   3.080   3.283  1.00  0.00     0.011 A 
ATOM     11  C   UNL     1      -0.248   2.653   1.046  1.00  0.00     0.047 A 
ATOM     12  C   UNL     1      -0.438   3.164   2.300  1.00  0.00     0.000 A 
ATOM     13  N   UNL     1      -1.323   2.871   0.271  1.00  0.00    -0.355 N 
ATOM     14  C   UNL     1      -1.692   3.731   2.332  1.00  0.00     0.037 A 
ATOM     15  C   UNL     1      -2.216   3.531   1.052  1.00  0.00     0.046 A 
ATOM     16  H   UNL     1      -1.440   2.567  -0.720  1.00  0.00     0.167 HD
BRANCH  15  17
ATOM     17  C   UNL     1      -3.558   3.971   0.592  1.00  0.00    -0.002 A 
ATOM     18  C   UNL     1      -4.584   4.235   1.520  1.00  0.00     0.010 A 
ATOM     19  C   UNL     1      -3.826   4.135  -0.781  1.00  0.00     0.010 A 
ATOM     20  C   UNL     1      -5.846   4.649   1.083  1.00  0.00     0.001 A 
ATOM     21  C   UNL     1      -5.090   4.550  -1.212  1.00  0.00     0.001 A 
ATOM     22  C   UNL     1      -6.099   4.806  -0.281  1.00  0.00     0.000 A 
ENDBRANCH  15  17
ENDBRANCH   2   7
BRANCH   5  23
ATOM     23  N   UNL     1       3.407  -3.110  -0.066  1.00  0.00    -0.308 NA
ATOM     24  H   UNL     1       3.001  -3.072   0.899  1.00  0.00     0.123 HD
BRANCH  23  25
ATOM     25  C   UNL     1       2.699  -4.112  -0.884  1.00  0.00     0.058 C 
ATOM     26  C   UNL     1       3.037  -5.532  -0.379  1.00  0.00     0.047 C 
ATOM     27  C   UNL     1       1.172  -3.873  -0.889  1.00  0.00     0.047 C 
ATOM     28  C   UNL     1       1.903  -6.093   0.493  1.00  0.00     0.161 C 
ATOM     29  C   UNL     1       0.430  -5.191  -1.163  1.00  0.00     0.161 C 
ATOM     30  O   UNL     1       0.660  -6.206  -0.191  1.00  0.00    -0.381 OA
ENDBRANCH  23  25
ENDBRANCH   5  23
TORSDOF 4
