REMARK SMILES c1ccc2c(c1)OCC[C@@H]2Nc1nnc(-c2ccc3ccccc3n2)o1
REMARK SMILES IDX 15 1 14 2 13 3 12 4 26 5 16 6 21 7 22 8 20 9 23 10 19 11
REMARK SMILES IDX 24 12 18 13 25 14 17 15 11 16 10 18 9 19 4 20 8 21 3 22 5 23
REMARK SMILES IDX 7 24 2 25 6 26 1 27
REMARK H PARENT 11 17
ROOT
ATOM      1  C   UNL     1      -1.535  -0.212  -0.754  1.00  0.00     0.268 A 
ATOM      2  N   UNL     1      -2.357  -0.546  -1.770  1.00  0.00    -0.104 NA
ATOM      3  N   UNL     1      -1.736  -0.194  -2.885  1.00  0.00    -0.090 NA
ATOM      4  C   UNL     1      -0.563   0.340  -2.501  1.00  0.00     0.316 A 
ATOM      5  O   UNL     1      -0.429   0.335  -1.198  1.00  0.00    -0.402 OA
ENDROOT
BRANCH   1   6
ATOM      6  C   UNL     1      -1.825  -0.432   0.670  1.00  0.00     0.128 A 
ATOM      7  C   UNL     1      -1.528  -0.622   5.674  1.00  0.00     0.001 A 
ATOM      8  C   UNL     1      -0.337  -0.048   5.220  1.00  0.00     0.002 A 
ATOM      9  C   UNL     1      -2.514  -1.013   4.761  1.00  0.00     0.010 A 
ATOM     10  C   UNL     1      -0.123   0.140   3.851  1.00  0.00     0.029 A 
ATOM     11  C   UNL     1      -2.307  -0.829   3.386  1.00  0.00     0.000 A 
ATOM     12  C   UNL     1      -1.103  -0.248   2.930  1.00  0.00     0.071 A 
ATOM     13  C   UNL     1      -3.273  -1.210   2.446  1.00  0.00     0.013 A 
ATOM     14  N   UNL     1      -0.898  -0.068   1.598  1.00  0.00    -0.243 NA
ATOM     15  C   UNL     1      -3.034  -1.013   1.085  1.00  0.00     0.035 A 
ENDBRANCH   1   6
BRANCH   4  16
ATOM     16  N   UNL     1       0.422   0.838  -3.415  1.00  0.00    -0.331 N 
ATOM     17  H   UNL     1       0.241   0.746  -4.439  1.00  0.00     0.166 HD
BRANCH  16  18
ATOM     18  C   UNL     1       1.677   1.461  -2.977  1.00  0.00     0.121 C 
ATOM     19  C   UNL     1       1.382   2.833  -2.334  1.00  0.00     0.071 C 
ATOM     20  C   UNL     1       2.457   0.548  -2.044  1.00  0.00     0.017 A 
ATOM     21  C   UNL     1       2.641   3.395  -1.675  1.00  0.00     0.232 C 
ATOM     22  C   UNL     1       2.549  -0.832  -2.297  1.00  0.00     0.010 A 
ATOM     23  C   UNL     1       3.156   1.093  -0.946  1.00  0.00     0.124 A 
ATOM     24  O   UNL     1       3.140   2.472  -0.710  1.00  0.00    -0.493 OA
ATOM     25  C   UNL     1       3.267  -1.662  -1.431  1.00  0.00     0.001 A 
ATOM     26  C   UNL     1       3.863   0.255  -0.078  1.00  0.00     0.047 A 
ATOM     27  C   UNL     1       3.915  -1.121  -0.318  1.00  0.00     0.004 A 
ENDBRANCH  16  18
ENDBRANCH   4  16
TORSDOF 3
