REMARK SMILES Cc1cccc(N(C)C(=O)c2cc(C)n(C(C)(C)C)n2)c1C
REMARK SMILES IDX 9 1 10 2 11 3 13 4 12 5 15 6 20 7 14 8 16 9 17 10 18 11
REMARK SMILES IDX 19 12 7 13 8 14 6 15 5 16 21 17 4 18 2 19 3 20 22 21 1 22
REMARK H PARENT
ROOT
ATOM      1  C   UNL     1       0.111  -1.471  -2.219  1.00  0.00     0.278 C 
ATOM      2  O   UNL     1       1.040  -2.065  -2.830  1.00  0.00    -0.267 OA
ENDROOT
BRANCH   1   3
ATOM      3  C   UNL     1       0.472  -0.565  -1.111  1.00  0.00     0.151 A 
ATOM      4  C   UNL     1       0.497   0.998   0.411  1.00  0.00     0.037 A 
ATOM      5  C   UNL     1      -0.276   0.478  -0.606  1.00  0.00     0.059 A 
ATOM      6  N   UNL     1       1.671   0.310   0.476  1.00  0.00    -0.264 N 
ATOM      7  N   UNL     1       1.638  -0.645  -0.446  1.00  0.00    -0.167 NA
ATOM      8  C   UNL     1       0.086   2.179   1.239  1.00  0.00     0.066 C 
BRANCH   6   9
ATOM      9  C   UNL     1       2.793   0.442   1.441  1.00  0.00     0.055 C 
ATOM     10  C   UNL     1       4.029  -0.327   0.916  1.00  0.00     0.036 C 
ATOM     11  C   UNL     1       3.208   1.918   1.627  1.00  0.00     0.036 C 
ATOM     12  C   UNL     1       2.382  -0.171   2.792  1.00  0.00     0.036 C 
ENDBRANCH   6   9
ENDBRANCH   1   3
BRANCH   1  13
ATOM     13  N   UNL     1      -1.261  -1.711  -2.604  1.00  0.00    -0.310 N 
ATOM     14  C   UNL     1      -1.543  -2.307  -3.912  1.00  0.00     0.153 C 
BRANCH  13  15
ATOM     15  C   UNL     1      -2.341  -1.580  -1.659  1.00  0.00     0.047 A 
ATOM     16  C   UNL     1      -3.367  -0.665  -1.937  1.00  0.00     0.026 A 
ATOM     17  C   UNL     1      -2.380  -2.338  -0.460  1.00  0.00    -0.024 A 
ATOM     18  C   UNL     1      -4.397  -0.456  -1.024  1.00  0.00     0.002 A 
ATOM     19  C   UNL     1      -3.404  -2.078   0.489  1.00  0.00    -0.046 A 
ATOM     20  C   UNL     1      -4.412  -1.149   0.184  1.00  0.00     0.004 A 
ATOM     21  C   UNL     1      -1.328  -3.387  -0.183  1.00  0.00     0.047 C 
ATOM     22  C   UNL     1      -3.462  -2.801   1.810  1.00  0.00     0.044 C 
ENDBRANCH  13  15
ENDBRANCH   1  13
TORSDOF 4
