REMARK SMILES CCCn1nc(NCc2nc(CC3CC3)no2)c2ccccc21
REMARK SMILES IDX 7 1 6 3 4 4 5 5 23 6 22 7 18 8 21 9 19 10 20 11 3 12 2 13
REMARK SMILES IDX 1 14 8 15 9 16 10 17 17 18 11 19 16 20 12 21 13 22 14 23
REMARK SMILES IDX 15 24
REMARK H PARENT 7 2
ROOT
ATOM      1  N   UNL     1      -1.052   1.063   1.195  1.00  0.00    -0.359 N 
ATOM      2  H   UNL     1      -1.921   1.556   1.498  1.00  0.00     0.162 HD
ENDROOT
BRANCH   1   3
ATOM      3  C   UNL     1      -1.161  -0.207   0.537  1.00  0.00     0.156 A 
ATOM      4  N   UNL     1      -0.588  -1.994  -0.550  1.00  0.00    -0.263 N 
ATOM      5  N   UNL     1      -0.109  -0.908   0.049  1.00  0.00    -0.154 NA
ATOM      6  C   UNL     1      -1.935  -1.994  -0.439  1.00  0.00     0.070 A 
ATOM      7  C   UNL     1      -2.861  -2.930  -0.906  1.00  0.00     0.029 A 
ATOM      8  C   UNL     1      -2.331  -0.874   0.241  1.00  0.00     0.044 A 
ATOM      9  C   UNL     1      -4.225  -2.681  -0.657  1.00  0.00     0.002 A 
ATOM     10  C   UNL     1      -3.671  -0.595   0.500  1.00  0.00     0.014 A 
ATOM     11  C   UNL     1      -4.627  -1.520   0.041  1.00  0.00     0.001 A 
BRANCH   4  12
ATOM     12  C   UNL     1       0.263  -2.995  -1.193  1.00  0.00     0.145 C 
BRANCH  12  13
ATOM     13  C   UNL     1       0.880  -3.940  -0.157  1.00  0.00     0.020 C 
ATOM     14  C   UNL     1      -0.167  -4.819   0.524  1.00  0.00     0.006 C 
ENDBRANCH  12  13
ENDBRANCH   4  12
ENDBRANCH   1   3
BRANCH   1  15
ATOM     15  C   UNL     1       0.238   1.698   1.461  1.00  0.00     0.215 C 
BRANCH  15  16
ATOM     16  C   UNL     1       0.995   1.927   0.190  1.00  0.00     0.245 A 
ATOM     17  N   UNL     1       0.423   2.261  -0.983  1.00  0.00    -0.195 NA
ATOM     18  O   UNL     1       2.294   1.803   0.078  1.00  0.00    -0.337 OA
ATOM     19  C   UNL     1       1.500   2.308  -1.794  1.00  0.00     0.172 A 
ATOM     20  N   UNL     1       2.649   2.025  -1.150  1.00  0.00    -0.062 NA
BRANCH  19  21
ATOM     21  C   UNL     1       1.413   2.529  -3.270  1.00  0.00     0.084 C 
BRANCH  21  22
ATOM     22  C   UNL     1       0.700   1.339  -3.927  1.00  0.00    -0.003 C 
ATOM     23  C   UNL     1       1.195   0.951  -5.312  1.00  0.00     0.004 C 
ATOM     24  C   UNL     1       1.556   0.094  -4.108  1.00  0.00     0.004 C 
ENDBRANCH  21  22
ENDBRANCH  19  21
ENDBRANCH  15  16
ENDBRANCH   1  15
TORSDOF 7
