REMARK SMILES O=C(N[C@@H]1CC[C@@H]2CC[C@@H]21)c1c[nH]nc1-c1cccc(F)c1
REMARK SMILES IDX 11 1 12 2 13 3 14 4 15 5 2 7 1 8 3 9 4 11 5 12 10 13 6 14
REMARK SMILES IDX 9 15 7 16 8 17 16 18 17 19 22 20 18 21 20 22 19 23 21 24
REMARK H PARENT 13 6 3 10
ROOT
ATOM      1  C   UNL     1      -2.451   0.700  -0.846  1.00  0.00     0.085 A 
ATOM      2  C   UNL     1      -3.675   1.317  -0.694  1.00  0.00     0.119 A 
ATOM      3  N   UNL     1      -4.626   0.505  -1.186  1.00  0.00    -0.284 N 
ATOM      4  N   UNL     1      -4.073  -0.600  -1.659  1.00  0.00    -0.175 NA
ATOM      5  C   UNL     1      -2.741  -0.509  -1.473  1.00  0.00     0.105 A 
ATOM      6  H   UNL     1      -5.652   0.698  -1.197  1.00  0.00     0.189 HD
ENDROOT
BRANCH   1   7
ATOM      7  C   UNL     1      -1.162   1.211  -0.345  1.00  0.00     0.255 C 
ATOM      8  O   UNL     1      -0.994   2.456  -0.239  1.00  0.00    -0.269 OA
ATOM      9  N   UNL     1      -0.127   0.309   0.071  1.00  0.00    -0.349 N 
ATOM     10  H   UNL     1      -0.374  -0.691   0.246  1.00  0.00     0.164 HD
BRANCH   9  11
ATOM     11  C   UNL     1       1.220   0.772   0.418  1.00  0.00     0.085 C 
ATOM     12  C   UNL     1       2.247  -0.332   0.173  1.00  0.00     0.025 C 
ATOM     13  C   UNL     1       1.362   1.151   1.908  1.00  0.00     0.015 C 
ATOM     14  C   UNL     1       2.463  -1.014   1.513  1.00  0.00     0.006 C 
ATOM     15  C   UNL     1       0.208   0.851   2.877  1.00  0.00     0.006 C 
ATOM     16  C   UNL     1       2.192   0.060   2.569  1.00  0.00    -0.006 C 
ATOM     17  C   UNL     1       1.045  -0.236   3.538  1.00  0.00     0.004 C 
ENDBRANCH   9  11
ENDBRANCH   1   7
BRANCH   5  18
ATOM     18  C   UNL     1      -1.793  -1.535  -1.955  1.00  0.00     0.006 A 
ATOM     19  C   UNL     1      -0.582  -1.170  -2.568  1.00  0.00     0.010 A 
ATOM     20  C   UNL     1      -2.122  -2.896  -1.844  1.00  0.00     0.049 A 
ATOM     21  C   UNL     1       0.302  -2.152  -3.026  1.00  0.00     0.004 A 
ATOM     22  C   UNL     1      -1.236  -3.876  -2.303  1.00  0.00     0.123 A 
ATOM     23  C   UNL     1      -0.023  -3.504  -2.890  1.00  0.00     0.039 A 
ATOM     24  F   UNL     1      -1.553  -5.189  -2.177  1.00  0.00    -0.207 F 
ENDBRANCH   5  18
TORSDOF 3
