REMARK SMILES CC(=O)OCC(=O)N1CCn2ncc([S@](C)(=O)=NC(=O)[C@@H]3CC3(C)C)c2C1
REMARK SMILES IDX 8 1 9 2 10 3 11 4 12 5 13 6 14 7 26 8 27 9 6 10 7 11 5 12
REMARK SMILES IDX 4 13 2 14 3 15 1 16 15 17 17 18 18 19 16 20 19 21 20 22
REMARK SMILES IDX 21 23 22 24 23 25 24 26 25 27
REMARK H PARENT
ROOT
ATOM      1  N   UNL     1      -2.460   1.396   0.751  1.00  0.00    -0.332 N 
ATOM      2  C   UNL     1      -3.285   2.560   0.368  1.00  0.00     0.143 C 
ATOM      3  C   UNL     1      -2.814   3.150  -0.966  1.00  0.00     0.166 C 
ATOM      4  N   UNL     1      -1.369   3.324  -0.942  1.00  0.00    -0.265 N 
ATOM      5  N   UNL     1      -0.691   4.173  -1.698  1.00  0.00    -0.180 NA
ATOM      6  C   UNL     1       0.621   3.981  -1.440  1.00  0.00     0.154 A 
ATOM      7  C   UNL     1       0.760   2.968  -0.507  1.00  0.00     0.091 A 
ATOM      8  C   UNL     1      -0.528   2.572  -0.219  1.00  0.00     0.075 A 
ATOM      9  C   UNL     1      -0.987   1.493   0.715  1.00  0.00     0.176 C 
ENDROOT
BRANCH   1  10
ATOM     10  C   UNL     1      -3.084   0.280   1.427  1.00  0.00     0.261 C 
ATOM     11  O   UNL     1      -4.280   0.366   1.816  1.00  0.00    -0.271 OA
BRANCH  10  12
ATOM     12  C   UNL     1      -2.348  -1.010   1.660  1.00  0.00     0.332 C 
BRANCH  12  13
ATOM     13  O   UNL     1      -2.005  -1.619   0.417  1.00  0.00    -0.456 OA
BRANCH  13  14
ATOM     14  C   UNL     1      -2.946  -2.192  -0.444  1.00  0.00     0.303 C 
ATOM     15  O   UNL     1      -4.163  -2.256  -0.119  1.00  0.00    -0.253 OA
ATOM     16  C   UNL     1      -2.494  -2.781  -1.736  1.00  0.00     0.139 C 
ENDBRANCH  13  14
ENDBRANCH  12  13
ENDBRANCH  10  12
ENDBRANCH   1  10
BRANCH   7  17
ATOM     17  S   UNL     1       2.259   2.358   0.174  1.00  0.00     0.083 S 
ATOM     18  O   UNL     1       3.398   2.764  -0.720  1.00  0.00    -0.244 OA
ATOM     19  N   UNL     1       2.175   0.789   0.290  1.00  0.00    -0.157 NA
ATOM     20  C   UNL     1       2.497   3.064   1.789  1.00  0.00     0.140 C 
BRANCH  19  21
ATOM     21  C   UNL     1       3.227  -0.114  -0.067  1.00  0.00     0.257 C 
ATOM     22  O   UNL     1       4.395   0.304  -0.290  1.00  0.00    -0.272 OA
BRANCH  21  23
ATOM     23  C   UNL     1       2.950  -1.587  -0.080  1.00  0.00     0.088 C 
ATOM     24  C   UNL     1       3.429  -2.316  -1.340  1.00  0.00     0.021 C 
ATOM     25  C   UNL     1       1.936  -2.102  -1.108  1.00  0.00    -0.023 C 
ATOM     26  C   UNL     1       1.152  -3.355  -0.707  1.00  0.00     0.012 C 
ATOM     27  C   UNL     1       1.259  -1.123  -2.079  1.00  0.00     0.012 C 
ENDBRANCH  21  23
ENDBRANCH  19  21
ENDBRANCH   7  17
TORSDOF 7
