REMARK SMILES COc1ccc2nc(NC(=O)N3CCC[C@@H](Nc4ccccc4)C3)sc2n1
REMARK SMILES IDX 9 1 10 2 11 3 8 5 3 6 4 7 27 8 5 9 26 10 6 11 25 12 7 13
REMARK SMILES IDX 2 14 1 15 12 16 13 17 24 18 14 19 16 20 15 21 17 22 18 24
REMARK SMILES IDX 19 25 23 26 20 27 22 28 21 29
REMARK H PARENT 9 4 17 23
ROOT
ATOM      1  N   UNL     1      -1.670  -0.547   0.809  1.00  0.00    -0.283 N 
ATOM      2  C   UNL     1      -1.546  -0.034  -0.527  1.00  0.00     0.323 C 
ATOM      3  O   UNL     1      -1.234  -0.810  -1.471  1.00  0.00    -0.248 OA
ATOM      4  H   UNL     1      -2.285  -0.038   1.482  1.00  0.00     0.174 HD
ENDROOT
BRANCH   1   5
ATOM      5  C   UNL     1      -1.034  -1.748   1.270  1.00  0.00     0.193 A 
ATOM      6  C   UNL     1       1.141  -5.577   2.859  1.00  0.00     0.214 A 
ATOM      7  C   UNL     1       0.257  -5.293   3.923  1.00  0.00     0.071 A 
ATOM      8  N   UNL     1       1.159  -4.775   1.751  1.00  0.00    -0.201 NA
ATOM      9  C   UNL     1      -0.603  -4.186   3.844  1.00  0.00     0.037 A 
ATOM     10  C   UNL     1       0.324  -3.710   1.685  1.00  0.00     0.149 A 
ATOM     11  C   UNL     1      -0.556  -3.394   2.700  1.00  0.00     0.103 A 
ATOM     12  S   UNL     1       0.185  -2.599   0.439  1.00  0.00    -0.076 S 
ATOM     13  N   UNL     1      -1.317  -2.293   2.480  1.00  0.00    -0.218 NA
BRANCH   6  14
ATOM     14  O   UNL     1       1.991  -6.683   2.954  1.00  0.00    -0.481 OA
ATOM     15  C   UNL     1       2.909  -7.038   1.928  1.00  0.00     0.280 C 
ENDBRANCH   6  14
ENDBRANCH   1   5
BRANCH   2  16
ATOM     16  N   UNL     1      -1.824   1.353  -0.805  1.00  0.00    -0.322 N 
ATOM     17  C   UNL     1      -1.521   2.403   0.174  1.00  0.00     0.121 C 
ATOM     18  C   UNL     1      -2.144   1.798  -2.166  1.00  0.00     0.146 C 
ATOM     19  C   UNL     1      -0.350   3.253  -0.331  1.00  0.00     0.024 C 
ATOM     20  C   UNL     1      -0.967   2.608  -2.741  1.00  0.00     0.098 C 
ATOM     21  C   UNL     1      -0.596   3.751  -1.767  1.00  0.00     0.028 C 
BRANCH  20  22
ATOM     22  N   UNL     1       0.190   1.736  -2.998  1.00  0.00    -0.381 N 
ATOM     23  H   UNL     1       1.052   1.866  -2.421  1.00  0.00     0.160 HD
BRANCH  22  24
ATOM     24  C   UNL     1       0.222   0.694  -3.994  1.00  0.00     0.034 A 
ATOM     25  C   UNL     1      -0.739   0.612  -5.023  1.00  0.00     0.025 A 
ATOM     26  C   UNL     1       1.247  -0.266  -3.945  1.00  0.00     0.025 A 
ATOM     27  C   UNL     1      -0.675  -0.417  -5.967  1.00  0.00     0.002 A 
ATOM     28  C   UNL     1       1.306  -1.293  -4.892  1.00  0.00     0.002 A 
ATOM     29  C   UNL     1       0.344  -1.369  -5.901  1.00  0.00     0.000 A 
ENDBRANCH  22  24
ENDBRANCH  20  22
ENDBRANCH   2  16
TORSDOF 5
