REMARK SMILES N#Cc1cc(N(CC[C@H]2C[C@H](F)C2)Cc2ccns2)ncn1
REMARK SMILES IDX 7 1 6 2 5 3 1 4 2 5 3 6 4 7 22 8 21 9 20 10 14 11 15 12
REMARK SMILES IDX 16 13 19 14 17 15 18 16 8 17 9 18 10 19 13 20 11 21 12 22
REMARK H PARENT
ROOT
ATOM      1  C   UNL     1      -0.973  -0.589  -0.214  1.00  0.00     0.119 C 
ENDROOT
BRANCH   1   2
ATOM      2  N   UNL     1      -0.594   0.050   1.059  1.00  0.00    -0.351 N 
BRANCH   2   3
ATOM      3  C   UNL     1      -1.073   1.369   1.425  1.00  0.00     0.133 A 
ATOM      4  N   UNL     1      -4.801   4.253   0.279  1.00  0.00    -0.191 NA
ATOM      5  C   UNL     1      -3.842   3.778   0.719  1.00  0.00     0.120 C 
ATOM      6  C   UNL     1      -2.649   3.190   1.264  1.00  0.00     0.145 A 
ATOM      7  C   UNL     1      -2.260   1.902   0.887  1.00  0.00     0.087 A 
ATOM      8  N   UNL     1      -1.895   3.898   2.143  1.00  0.00    -0.225 NA
ATOM      9  C   UNL     1      -0.761   3.370   2.666  1.00  0.00     0.225 A 
ATOM     10  N   UNL     1      -0.359   2.125   2.304  1.00  0.00    -0.219 NA
ENDBRANCH   2   3
BRANCH   2  11
ATOM     11  C   UNL     1       0.373  -0.642   1.925  1.00  0.00     0.166 C 
BRANCH  11  12
ATOM     12  C   UNL     1       1.750  -0.545   1.347  1.00  0.00     0.045 A 
ATOM     13  C   UNL     1       2.562   0.578   1.282  1.00  0.00     0.039 A 
ATOM     14  S   UNL     1       2.570  -1.733   0.516  1.00  0.00    -0.040 S 
ATOM     15  C   UNL     1       3.766   0.349   0.585  1.00  0.00     0.126 A 
ATOM     16  N   UNL     1       3.942  -0.902   0.083  1.00  0.00    -0.201 NA
ENDBRANCH  11  12
ENDBRANCH   2  11
ENDBRANCH   1   2
BRANCH   1  17
ATOM     17  C   UNL     1      -0.414   0.214  -1.409  1.00  0.00     0.025 C 
BRANCH  17  18
ATOM     18  C   UNL     1      -0.482  -0.472  -2.796  1.00  0.00    -0.004 C 
ATOM     19  C   UNL     1       0.253  -1.807  -2.909  1.00  0.00     0.041 C 
ATOM     20  C   UNL     1      -1.799  -1.161  -3.158  1.00  0.00     0.041 C 
ATOM     21  C   UNL     1      -1.066  -2.495  -3.240  1.00  0.00     0.167 C 
ATOM     22  F   UNL     1      -1.076  -3.016  -4.523  1.00  0.00    -0.247 F 
ENDBRANCH  17  18
ENDBRANCH   1  17
TORSDOF 6
