REMARK SMILES C[C@H](C(=O)NC1(Cc2ccccc2)CCC1)n1ccc(C(F)(F)F)n1
REMARK SMILES IDX 3 1 4 2 5 3 2 5 1 6 17 7 18 8 25 9 19 10 20 11 21 12 22 13
REMARK SMILES IDX 23 14 24 15 6 16 14 17 16 18 15 19 7 20 8 21 9 22 13 23
REMARK SMILES IDX 10 24 12 25 11 26
REMARK H PARENT 5 4
ROOT
ATOM      1  C   UNL     1      -1.621  -0.115   1.444  1.00  0.00     0.245 C 
ATOM      2  O   UNL     1      -1.467  -0.535   2.623  1.00  0.00    -0.273 OA
ATOM      3  N   UNL     1      -0.605   0.695   0.829  1.00  0.00    -0.348 N 
ATOM      4  H   UNL     1      -0.748   1.006  -0.157  1.00  0.00     0.164 HD
ENDROOT
BRANCH   1   5
ATOM      5  C   UNL     1      -2.879  -0.478   0.698  1.00  0.00     0.193 C 
ATOM      6  C   UNL     1      -3.682   0.770   0.309  1.00  0.00     0.044 C 
BRANCH   5   7
ATOM      7  N   UNL     1      -2.566  -1.314  -0.466  1.00  0.00    -0.260 N 
ATOM      8  C   UNL     1      -2.139  -0.906  -1.681  1.00  0.00     0.110 A 
ATOM      9  N   UNL     1      -2.628  -2.636  -0.439  1.00  0.00    -0.168 NA
ATOM     10  C   UNL     1      -1.932  -2.017  -2.470  1.00  0.00     0.055 A 
ATOM     11  C   UNL     1      -2.238  -3.085  -1.648  1.00  0.00     0.166 A 
BRANCH  11  12
ATOM     12  C   UNL     1      -2.243  -4.527  -2.045  1.00  0.00     0.435 C 
ATOM     13  F   UNL     1      -3.473  -4.849  -2.586  1.00  0.00    -0.164 F 
ATOM     14  F   UNL     1      -1.254  -4.766  -2.982  1.00  0.00    -0.164 F 
ATOM     15  F   UNL     1      -2.011  -5.320  -0.935  1.00  0.00    -0.164 F 
ENDBRANCH  11  12
ENDBRANCH   5   7
ENDBRANCH   1   5
BRANCH   3  16
ATOM     16  C   UNL     1       0.644   1.073   1.510  1.00  0.00     0.044 C 
ATOM     17  C   UNL     1       1.328   2.284   0.855  1.00  0.00     0.029 C 
ATOM     18  C   UNL     1       0.386   1.919   2.764  1.00  0.00     0.029 C 
ATOM     19  C   UNL     1       1.060   3.113   2.104  1.00  0.00     0.005 C 
BRANCH  16  20
ATOM     20  C   UNL     1       1.588  -0.131   1.755  1.00  0.00     0.063 C 
BRANCH  20  21
ATOM     21  C   UNL     1       1.823  -0.938   0.501  1.00  0.00    -0.046 A 
ATOM     22  C   UNL     1       1.016  -2.054   0.215  1.00  0.00     0.004 A 
ATOM     23  C   UNL     1       2.839  -0.579  -0.401  1.00  0.00     0.004 A 
ATOM     24  C   UNL     1       1.228  -2.799  -0.948  1.00  0.00     0.000 A 
ATOM     25  C   UNL     1       3.040  -1.321  -1.569  1.00  0.00     0.000 A 
ATOM     26  C   UNL     1       2.235  -2.429  -1.843  1.00  0.00     0.000 A 
ENDBRANCH  20  21
ENDBRANCH  16  20
ENDBRANCH   3  16
TORSDOF 6
