REMARK SMILES CC1(CC(=O)NCc2ccc(-n3cncn3)cc2)OCCO1
REMARK SMILES IDX 4 1 5 2 6 3 3 5 2 6 19 7 22 8 20 9 21 10 1 11 7 12 8 13 9 14
REMARK SMILES IDX 18 15 10 16 17 17 11 18 12 19 13 20 16 21 14 22 15 23
REMARK H PARENT 6 4
ROOT
ATOM      1  C   UNL     1       1.357  -0.486   0.604  1.00  0.00     0.225 C 
ATOM      2  O   UNL     1       1.727   0.718   0.555  1.00  0.00    -0.275 OA
ATOM      3  N   UNL     1       0.242  -0.869   1.420  1.00  0.00    -0.352 N 
ATOM      4  H   UNL     1      -0.021  -1.879   1.480  1.00  0.00     0.163 HD
ENDROOT
BRANCH   1   5
ATOM      5  C   UNL     1       2.117  -1.523  -0.175  1.00  0.00     0.165 C 
BRANCH   5   6
ATOM      6  C   UNL     1       3.372  -2.029   0.569  1.00  0.00     0.174 C 
ATOM      7  O   UNL     1       4.053  -2.932  -0.276  1.00  0.00    -0.347 OA
ATOM      8  O   UNL     1       4.196  -0.930   0.906  1.00  0.00    -0.347 OA
ATOM      9  C   UNL     1       5.354  -2.449  -0.390  1.00  0.00     0.192 C 
ATOM     10  C   UNL     1       5.318  -1.033   0.091  1.00  0.00     0.192 C 
ATOM     11  C   UNL     1       2.989  -2.771   1.857  1.00  0.00     0.076 C 
ENDBRANCH   5   6
ENDBRANCH   1   5
BRANCH   3  12
ATOM     12  C   UNL     1      -0.527   0.097   2.201  1.00  0.00     0.151 C 
BRANCH  12  13
ATOM     13  C   UNL     1      -1.389   0.932   1.295  1.00  0.00    -0.029 A 
ATOM     14  C   UNL     1      -1.080   2.279   1.056  1.00  0.00     0.008 A 
ATOM     15  C   UNL     1      -2.495   0.357   0.653  1.00  0.00     0.008 A 
ATOM     16  C   UNL     1      -1.873   3.044   0.196  1.00  0.00     0.029 A 
ATOM     17  C   UNL     1      -3.288   1.121  -0.208  1.00  0.00     0.029 A 
ATOM     18  C   UNL     1      -2.990   2.475  -0.445  1.00  0.00     0.066 A 
BRANCH  18  19
ATOM     19  N   UNL     1      -3.815   3.248  -1.341  1.00  0.00    -0.221 N 
ATOM     20  C   UNL     1      -3.796   4.579  -1.553  1.00  0.00     0.225 A 
ATOM     21  N   UNL     1      -4.759   2.734  -2.111  1.00  0.00    -0.155 NA
ATOM     22  N   UNL     1      -4.720   4.946  -2.461  1.00  0.00    -0.223 NA
ATOM     23  C   UNL     1      -5.297   3.769  -2.783  1.00  0.00     0.246 A 
ENDBRANCH  18  19
ENDBRANCH  12  13
ENDBRANCH   3  12
TORSDOF 5
