REMARK SMILES O=C(Nc1ccc(-n2cccn2)nc1)[C@H]1C[C@H]1C1CCCC1
REMARK SMILES IDX 1 1 2 2 3 3 15 5 16 6 17 7 18 8 19 9 22 10 20 11 21 12 4 13
REMARK SMILES IDX 5 14 14 15 6 16 13 17 7 18 8 19 9 20 12 21 10 22 11 23
REMARK H PARENT 3 4
ROOT
ATOM      1  O   UNL     1      -1.481  -1.956   0.525  1.00  0.00    -0.274 OA
ATOM      2  C   UNL     1      -2.045  -0.938   0.037  1.00  0.00     0.227 C 
ATOM      3  N   UNL     1      -1.412  -0.173  -0.999  1.00  0.00    -0.324 N 
ATOM      4  H   UNL     1      -1.859   0.731  -1.275  1.00  0.00     0.169 HD
ENDROOT
BRANCH   2   5
ATOM      5  C   UNL     1      -3.401  -0.522   0.537  1.00  0.00     0.082 C 
ATOM      6  C   UNL     1      -3.682  -0.788   2.014  1.00  0.00     0.018 C 
ATOM      7  C   UNL     1      -3.454   0.641   1.534  1.00  0.00     0.005 C 
BRANCH   7   8
ATOM      8  C   UNL     1      -2.137   1.277   2.042  1.00  0.00    -0.007 C 
ATOM      9  C   UNL     1      -2.331   1.875   3.441  1.00  0.00     0.004 C 
ATOM     10  C   UNL     1      -1.702   2.439   1.135  1.00  0.00     0.004 C 
ATOM     11  C   UNL     1      -2.389   3.380   3.254  1.00  0.00     0.000 C 
ATOM     12  C   UNL     1      -1.540   3.659   2.031  1.00  0.00     0.000 C 
ENDBRANCH   7   8
ENDBRANCH   2   5
BRANCH   3  13
ATOM     13  C   UNL     1      -0.128  -0.485  -1.565  1.00  0.00     0.059 A 
ATOM     14  C   UNL     1       0.261  -1.807  -1.830  1.00  0.00     0.031 A 
ATOM     15  C   UNL     1       0.742   0.553  -1.921  1.00  0.00     0.139 A 
ATOM     16  C   UNL     1       1.508  -2.068  -2.402  1.00  0.00     0.051 A 
ATOM     17  N   UNL     1       1.951   0.276  -2.476  1.00  0.00    -0.235 NA
ATOM     18  C   UNL     1       2.360  -1.000  -2.721  1.00  0.00     0.153 A 
BRANCH  18  19
ATOM     19  N   UNL     1       3.650  -1.238  -3.310  1.00  0.00    -0.223 N 
ATOM     20  C   UNL     1       4.546  -0.295  -3.662  1.00  0.00     0.117 A 
ATOM     21  N   UNL     1       4.134  -2.439  -3.588  1.00  0.00    -0.175 NA
ATOM     22  C   UNL     1       5.654  -0.923  -4.189  1.00  0.00     0.042 A 
ATOM     23  C   UNL     1       5.357  -2.271  -4.126  1.00  0.00     0.135 A 
ENDBRANCH  18  19
ENDBRANCH   3  13
TORSDOF 4
