REMARK SMILES CN1CCC[C@@H](N2CCN(C(=O)Cc3csc(-c4cccs4)n3)CC2)C1
REMARK SMILES IDX 7 1 8 2 9 3 10 4 24 5 25 6 11 7 12 8 6 9 2 10 3 11 26 12
REMARK SMILES IDX 4 13 5 14 1 15 13 16 14 17 15 18 23 19 16 20 17 21 18 22
REMARK SMILES IDX 19 23 22 24 20 25 21 26
REMARK H PARENT
ROOT
ATOM      1  N   UNL     1      -0.867   0.278   0.372  1.00  0.00    -0.296 NA
ATOM      2  C   UNL     1      -0.467   1.543  -0.283  1.00  0.00     0.106 C 
ATOM      3  C   UNL     1       0.808   1.318  -1.095  1.00  0.00     0.135 C 
ATOM      4  N   UNL     1       0.631   0.192  -2.018  1.00  0.00    -0.340 N 
ATOM      5  C   UNL     1       0.038  -1.048  -1.500  1.00  0.00     0.135 C 
ATOM      6  C   UNL     1      -1.195  -0.740  -0.646  1.00  0.00     0.106 C 
ATOM      7  C   UNL     1       1.378   0.189  -3.251  1.00  0.00     0.228 C 
ATOM      8  O   UNL     1       1.403   1.228  -3.964  1.00  0.00    -0.274 OA
ENDROOT
BRANCH   1   9
ATOM      9  C   UNL     1      -1.939   0.409   1.399  1.00  0.00     0.071 C 
ATOM     10  N   UNL     1      -2.410   1.425   3.656  1.00  0.00    -0.305 NA
ATOM     11  C   UNL     1      -3.291   2.485   3.097  1.00  0.00     0.084 C 
ATOM     12  C   UNL     1      -1.358   0.968   2.725  1.00  0.00     0.103 C 
ATOM     13  C   UNL     1      -3.271   2.580   1.558  1.00  0.00     0.017 C 
ATOM     14  C   UNL     1      -3.195   1.193   0.922  1.00  0.00     0.022 C 
ATOM     15  C   UNL     1      -3.174   0.305   4.231  1.00  0.00     0.105 C 
ENDBRANCH   1   9
BRANCH   7  16
ATOM     16  C   UNL     1       2.216  -0.991  -3.660  1.00  0.00     0.157 C 
BRANCH  16  17
ATOM     17  C   UNL     1       3.446  -1.052  -2.809  1.00  0.00     0.061 A 
ATOM     18  C   UNL     1       4.650  -0.449  -3.166  1.00  0.00     0.091 A 
ATOM     19  N   UNL     1       3.434  -1.635  -1.580  1.00  0.00    -0.240 NA
ATOM     20  S   UNL     1       5.732  -0.676  -1.899  1.00  0.00    -0.121 S 
ATOM     21  C   UNL     1       4.624  -1.519  -0.953  1.00  0.00     0.133 A 
BRANCH  21  22
ATOM     22  C   UNL     1       4.882  -2.044   0.394  1.00  0.00     0.063 A 
ATOM     23  C   UNL     1       3.959  -2.705   1.197  1.00  0.00     0.023 A 
ATOM     24  S   UNL     1       6.338  -1.937   1.229  1.00  0.00    -0.141 S 
ATOM     25  C   UNL     1       4.482  -3.087   2.438  1.00  0.00     0.012 A 
ATOM     26  C   UNL     1       5.813  -2.729   2.616  1.00  0.00     0.065 A 
ENDBRANCH  21  22
ENDBRANCH  16  17
ENDBRANCH   7  16
TORSDOF 4
