REMARK SMILES CN1CC[C@@](C)(CNC(=O)Nc2ccc(-c3ncco3)cc2)C1
REMARK SMILES IDX 8 1 9 2 10 3 11 4 7 7 5 8 2 9 3 10 23 11 4 12 1 13 6 14
REMARK SMILES IDX 12 15 13 16 22 17 14 18 21 19 15 20 16 21 17 22 20 23 18 24
REMARK SMILES IDX 19 25
REMARK H PARENT 8 5 11 6
ROOT
ATOM      1  N   UNL     1       1.596   0.559   0.379  1.00  0.00    -0.337 N 
ATOM      2  C   UNL     1       0.603  -0.319  -0.171  1.00  0.00     0.319 C 
ATOM      3  O   UNL     1      -0.585   0.081  -0.314  1.00  0.00    -0.249 OA
ATOM      4  N   UNL     1       0.960  -1.667  -0.511  1.00  0.00    -0.308 N 
ATOM      5  H   UNL     1       2.571   0.201   0.486  1.00  0.00     0.165 HD
ATOM      6  H   UNL     1       1.857  -2.041  -0.125  1.00  0.00     0.171 HD
ENDROOT
BRANCH   1   7
ATOM      7  C   UNL     1       1.311   1.936   0.789  1.00  0.00     0.125 C 
BRANCH   7   8
ATOM      8  C   UNL     1       1.264   2.092   2.338  1.00  0.00    -0.001 C 
ATOM      9  N   UNL     1      -0.570   3.581   2.969  1.00  0.00    -0.306 NA
ATOM     10  C   UNL     1      -1.076   2.204   2.870  1.00  0.00     0.085 C 
ATOM     11  C   UNL     1       0.880   3.540   2.700  1.00  0.00     0.092 C 
ATOM     12  C   UNL     1       0.123   1.281   2.952  1.00  0.00     0.025 C 
ATOM     13  C   UNL     1      -1.276   4.485   2.048  1.00  0.00     0.105 C 
ATOM     14  C   UNL     1       2.622   1.705   2.962  1.00  0.00     0.014 C 
ENDBRANCH   7   8
ENDBRANCH   1   7
BRANCH   4  15
ATOM     15  C   UNL     1       0.109  -2.569  -1.239  1.00  0.00     0.042 A 
ATOM     16  C   UNL     1       0.161  -3.942  -0.957  1.00  0.00     0.027 A 
ATOM     17  C   UNL     1      -0.732  -2.115  -2.269  1.00  0.00     0.027 A 
ATOM     18  C   UNL     1      -0.640  -4.843  -1.664  1.00  0.00     0.016 A 
ATOM     19  C   UNL     1      -1.533  -3.015  -2.978  1.00  0.00     0.016 A 
ATOM     20  C   UNL     1      -1.497  -4.387  -2.678  1.00  0.00     0.037 A 
BRANCH  20  21
ATOM     21  C   UNL     1      -2.347  -5.333  -3.430  1.00  0.00     0.225 A 
ATOM     22  N   UNL     1      -2.368  -6.665  -3.206  1.00  0.00    -0.218 NA
ATOM     23  O   UNL     1      -3.167  -4.972  -4.392  1.00  0.00    -0.445 OA
ATOM     24  C   UNL     1      -3.265  -7.118  -4.101  1.00  0.00     0.154 A 
ATOM     25  C   UNL     1      -3.752  -6.058  -4.829  1.00  0.00     0.218 A 
ENDBRANCH  20  21
ENDBRANCH   4  15
TORSDOF 4
