REMARK SMILES O=C1N[C@@]2(CCc3ccccc32)C(=O)N1Cc1ncc(Cl)cc1Cl
REMARK SMILES IDX 16 1 15 2 1 3 2 4 3 5 4 6 13 7 5 8 12 9 14 10 6 11 11 12
REMARK SMILES IDX 7 13 10 14 8 15 9 16 17 18 18 19 23 20 19 21 22 22 20 23
REMARK SMILES IDX 24 24 21 25
REMARK H PARENT 3 17
ROOT
ATOM      1  C   UNL     1      -0.268   1.830  -2.365  1.00  0.00     0.188 C 
ENDROOT
BRANCH   1   2
ATOM      2  N   UNL     1      -1.207   1.238  -1.413  1.00  0.00    -0.256 N 
ATOM      3  O   UNL     1      -1.981   3.161  -0.278  1.00  0.00    -0.248 OA
ATOM      4  C   UNL     1      -1.800   1.916  -0.314  1.00  0.00     0.325 C 
ATOM      5  N   UNL     1      -2.163   1.050   0.754  1.00  0.00    -0.319 N 
ATOM      6  C   UNL     1      -1.747  -0.302   0.390  1.00  0.00     0.147 C 
ATOM      7  C   UNL     1      -1.187  -0.124  -0.994  1.00  0.00     0.261 C 
ATOM      8  C   UNL     1      -2.914  -1.315   0.469  1.00  0.00     0.048 C 
ATOM      9  C   UNL     1      -0.728  -0.825   1.335  1.00  0.00    -0.010 A 
ATOM     10  O   UNL     1      -0.707  -1.055  -1.695  1.00  0.00    -0.271 OA
ATOM     11  C   UNL     1      -2.465  -2.442   1.423  1.00  0.00     0.039 C 
ATOM     12  C   UNL     1       0.511  -0.254   1.652  1.00  0.00     0.007 A 
ATOM     13  C   UNL     1      -1.128  -2.009   1.902  1.00  0.00    -0.042 A 
ATOM     14  C   UNL     1       1.346  -0.917   2.563  1.00  0.00     0.000 A 
ATOM     15  C   UNL     1      -0.311  -2.685   2.812  1.00  0.00     0.004 A 
ATOM     16  C   UNL     1       0.936  -2.131   3.143  1.00  0.00     0.000 A 
ATOM     17  H   UNL     1      -2.570   1.346   1.669  1.00  0.00     0.166 HD
ENDBRANCH   1   2
BRANCH   1  18
ATOM     18  C   UNL     1       1.112   1.881  -1.762  1.00  0.00     0.079 A 
ATOM     19  N   UNL     1       1.849   0.735  -1.747  1.00  0.00    -0.256 NA
ATOM     20  C   UNL     1       1.628   3.040  -1.144  1.00  0.00     0.065 A 
ATOM     21  C   UNL     1       3.073   0.666  -1.162  1.00  0.00     0.132 A 
ATOM     22  C   UNL     1       2.886   2.983  -0.536  1.00  0.00     0.044 A 
ATOM     23  C   UNL     1       3.613   1.792  -0.541  1.00  0.00     0.060 A 
ATOM     24  Cl  UNL     1       0.753   4.567  -1.113  1.00  0.00    -0.082 Cl
ATOM     25  Cl  UNL     1       5.187   1.709   0.230  1.00  0.00    -0.083 Cl
ENDBRANCH   1  18
TORSDOF 2
