REMARK SMILES CCN(Cc1cn(Cc2nccs2)nn1)c1cccc(CO)c1
REMARK SMILES IDX 3 1 2 2 1 3 4 4 5 5 6 6 15 7 7 8 14 9 8 10 9 11 10 12 13 13
REMARK SMILES IDX 11 14 12 15 16 16 17 17 23 18 18 19 20 20 19 21 21 22 22 23
REMARK H PARENT 22 24
ROOT
ATOM      1  N   UNL     1      -1.468  -0.186  -0.400  1.00  0.00    -0.366 N 
ENDROOT
BRANCH   1   2
ATOM      2  C   UNL     1      -1.943   1.188  -0.638  1.00  0.00     0.113 C 
ATOM      3  C   UNL     1      -2.675   1.302  -1.974  1.00  0.00     0.027 C 
ENDBRANCH   1   2
BRANCH   1   4
ATOM      4  C   UNL     1      -0.395  -0.748  -1.238  1.00  0.00     0.176 C 
BRANCH   4   5
ATOM      5  C   UNL     1       0.864   0.051  -1.105  1.00  0.00     0.102 A 
ATOM      6  C   UNL     1       1.750   0.035  -0.050  1.00  0.00     0.137 A 
ATOM      7  N   UNL     1       1.288   0.962  -2.006  1.00  0.00    -0.134 NA
ATOM      8  N   UNL     1       2.693   0.945  -0.347  1.00  0.00    -0.245 N 
ATOM      9  N   UNL     1       2.408   1.482  -1.523  1.00  0.00    -0.067 NA
BRANCH   8  10
ATOM     10  C   UNL     1       3.888   1.246   0.431  1.00  0.00     0.213 C 
BRANCH  10  11
ATOM     11  C   UNL     1       4.975   0.283   0.083  1.00  0.00     0.114 A 
ATOM     12  N   UNL     1       5.155  -0.897   0.714  1.00  0.00    -0.248 NA
ATOM     13  S   UNL     1       6.038   0.460  -1.207  1.00  0.00    -0.125 S 
ATOM     14  C   UNL     1       6.165  -1.619   0.158  1.00  0.00     0.123 A 
ATOM     15  C   UNL     1       6.785  -1.022  -0.933  1.00  0.00     0.087 A 
ENDBRANCH  10  11
ENDBRANCH   8  10
ENDBRANCH   4   5
ENDBRANCH   1   4
BRANCH   1  16
ATOM     16  C   UNL     1      -2.113  -1.010   0.598  1.00  0.00     0.037 A 
ATOM     17  C   UNL     1      -1.346  -1.791   1.481  1.00  0.00     0.026 A 
ATOM     18  C   UNL     1      -3.516  -1.042   0.705  1.00  0.00     0.032 A 
ATOM     19  C   UNL     1      -1.968  -2.591   2.442  1.00  0.00     0.003 A 
ATOM     20  C   UNL     1      -4.143  -1.833   1.681  1.00  0.00    -0.021 A 
ATOM     21  C   UNL     1      -3.360  -2.619   2.539  1.00  0.00     0.006 A 
BRANCH  20  22
ATOM     22  C   UNL     1      -5.641  -1.890   1.760  1.00  0.00     0.191 C 
BRANCH  22  23
ATOM     23  O   UNL     1      -6.111  -2.895   0.906  1.00  0.00    -0.392 OA
ATOM     24  H   UNL     1      -7.099  -2.890   0.993  1.00  0.00     0.211 HD
ENDBRANCH  22  23
ENDBRANCH  20  22
ENDBRANCH   1  16
TORSDOF 8
