REMARK SMILES C[C@@H](NC(=O)c1ccc(Oc2ccc(Cl)cc2)cc1)[C@@H]1CCNC1
REMARK SMILES IDX 6 1 7 2 8 3 9 4 18 5 19 6 4 7 3 8 5 9 2 11 1 12 20 13 21 14
REMARK SMILES IDX 24 15 22 16 23 17 10 19 11 20 12 21 17 22 13 23 16 24 14 25
REMARK SMILES IDX 15 26
REMARK H PARENT 3 10 23 18
ROOT
ATOM      1  C   UNL     1      -0.448   0.734   0.541  1.00  0.00     0.040 A 
ATOM      2  C   UNL     1      -0.298   1.955  -0.140  1.00  0.00     0.017 A 
ATOM      3  C   UNL     1       0.969   2.516  -0.320  1.00  0.00     0.048 A 
ATOM      4  C   UNL     1       2.112   1.855   0.161  1.00  0.00     0.127 A 
ATOM      5  C   UNL     1       1.965   0.645   0.846  1.00  0.00     0.048 A 
ATOM      6  C   UNL     1       0.699   0.081   1.028  1.00  0.00     0.017 A 
ENDROOT
BRANCH   1   7
ATOM      7  C   UNL     1      -1.795   0.141   0.717  1.00  0.00     0.251 C 
ATOM      8  N   UNL     1      -2.063  -0.776   1.791  1.00  0.00    -0.349 N 
ATOM      9  O   UNL     1      -2.717   0.455  -0.085  1.00  0.00    -0.269 OA
ATOM     10  H   UNL     1      -1.397  -0.814   2.594  1.00  0.00     0.164 HD
BRANCH   8  11
ATOM     11  C   UNL     1      -3.239  -1.656   1.815  1.00  0.00     0.083 C 
ATOM     12  C   UNL     1      -3.936  -1.545   3.175  1.00  0.00     0.031 C 
BRANCH  11  13
ATOM     13  C   UNL     1      -2.869  -3.128   1.488  1.00  0.00     0.026 C 
ATOM     14  C   UNL     1      -1.843  -3.766   2.406  1.00  0.00     0.022 C 
ATOM     15  C   UNL     1      -2.270  -3.322   0.100  1.00  0.00     0.086 C 
ATOM     16  C   UNL     1      -1.241  -4.872   1.557  1.00  0.00     0.081 C 
ATOM     17  N   UNL     1      -1.433  -4.525   0.145  1.00  0.00    -0.316 NA
ATOM     18  H   UNL     1      -0.501  -4.303  -0.278  1.00  0.00     0.122 HD
ENDBRANCH  11  13
ENDBRANCH   8  11
ENDBRANCH   1   7
BRANCH   4  19
ATOM     19  O   UNL     1       3.399   2.394   0.014  1.00  0.00    -0.457 OA
BRANCH  19  20
ATOM     20  C   UNL     1       3.830   3.189  -1.058  1.00  0.00     0.127 A 
ATOM     21  C   UNL     1       3.316   3.029  -2.359  1.00  0.00     0.048 A 
ATOM     22  C   UNL     1       4.836   4.136  -0.831  1.00  0.00     0.048 A 
ATOM     23  C   UNL     1       3.785   3.830  -3.405  1.00  0.00     0.024 A 
ATOM     24  C   UNL     1       5.304   4.936  -1.878  1.00  0.00     0.024 A 
ATOM     25  C   UNL     1       4.777   4.787  -3.165  1.00  0.00     0.041 A 
ATOM     26  Cl  UNL     1       5.366   5.789  -4.478  1.00  0.00    -0.084 Cl
ENDBRANCH  19  20
ENDBRANCH   4  19
TORSDOF 5
