REMARK SMILES c1ccc(-c2noc(C3CCN(C[C@@H]4CCCCNC4)CC3)n2)cc1
REMARK SMILES IDX 13 1 12 2 9 3 10 4 22 5 11 6 21 7 8 8 5 9 6 10 23 11 7 12
REMARK SMILES IDX 4 13 1 14 2 15 25 16 3 17 24 18 14 19 15 20 16 21 17 22
REMARK SMILES IDX 20 24 19 25 18 27
REMARK H PARENT 19 26
REMARK Flexibility Score:   65.900
ROOT
ATOM      1  C   UNL     1       2.199   2.431  -0.417  1.00  0.00     0.089 C 
ENDROOT
BRANCH   1   2
ATOM      2  N   UNL     1       1.213   1.566   0.267  1.00  0.00    -0.303 NA
ATOM      3  C   UNL     1      -0.626   0.041   1.536  1.00  0.00     0.081 C 
ATOM      4  C   UNL     1      -1.161   1.411   1.093  1.00  0.00     0.029 C 
ATOM      5  C   UNL     1       0.721   0.195   2.273  1.00  0.00     0.029 C 
ATOM      6  C   UNL     1      -0.147   2.146   0.186  1.00  0.00     0.085 C 
ATOM      7  C   UNL     1       1.587   1.320   1.675  1.00  0.00     0.085 C 
BRANCH   3   8
ATOM      8  C   UNL     1      -1.626  -0.672   2.400  1.00  0.00     0.230 A 
ATOM      9  C   UNL     1      -2.908  -2.110   3.204  1.00  0.00     0.202 A 
ATOM     10  N   UNL     1      -2.979  -1.029   4.008  1.00  0.00    -0.057 NA
ATOM     11  N   UNL     1      -2.058  -1.927   2.171  1.00  0.00    -0.191 NA
ATOM     12  O   UNL     1      -2.171  -0.163   3.477  1.00  0.00    -0.339 OA
BRANCH   9  13
ATOM     13  C   UNL     1      -3.671  -3.356   3.432  1.00  0.00     0.023 A 
ATOM     14  C   UNL     1      -5.117  -5.726   3.865  1.00  0.00     0.000 A 
ATOM     15  C   UNL     1      -5.246  -4.656   4.754  1.00  0.00     0.001 A 
ATOM     16  C   UNL     1      -4.269  -5.617   2.760  1.00  0.00     0.001 A 
ATOM     17  C   UNL     1      -4.528  -3.476   4.541  1.00  0.00     0.012 A 
ATOM     18  C   UNL     1      -3.548  -4.439   2.543  1.00  0.00     0.012 A 
ENDBRANCH   9  13
ENDBRANCH   3   8
ENDBRANCH   1   2
BRANCH   1  19
ATOM     19  C   UNL     1       3.341   1.585  -1.033  1.00  0.00     0.017 C 
BRANCH  19  20
ATOM     20  C   UNL     1       4.431   2.476  -1.673  1.00  0.00     0.006 C 
BRANCH  20  21
ATOM     21  C   UNL     1       4.055   3.108  -3.028  1.00  0.00     0.002 C 
BRANCH  21  22
ATOM     22  C   UNL     1       4.049   2.080  -4.173  1.00  0.00     0.015 CG0
ATOM     23  G   UNL     1       2.724   1.305  -4.320  1.00  0.00     0.000 G0
ENDBRANCH  21  22
ENDBRANCH  20  21
ENDBRANCH  19  20
BRANCH  19  24
ATOM     24  C   UNL     1       2.814   0.508  -2.003  1.00  0.00     0.085 C 
BRANCH  24  25
ATOM     25  N   UNL     1       1.995   1.125  -3.057  1.00  0.00    -0.316 NA
ATOM     26  H   UNL     1       1.179   0.499  -3.253  1.00  0.00     0.122 HD
BRANCH  25  27
ATOM     27  C   UNL     1       2.724   1.305  -4.320  1.00  0.00     0.081 CG0
ATOM     28  G   UNL     1       4.049   2.080  -4.173  1.00  0.00     0.000 G0
ENDBRANCH  25  27
ENDBRANCH  24  25
ENDBRANCH  19  24
ENDBRANCH   1  19
TORSDOF 4
