REMARK SMILES Cc1ccc(C)c(S(=O)(=O)Nc2ccc(-c3cnc(C)o3)cc2)c1
REMARK SMILES IDX 11 1 12 3 15 4 14 5 22 6 13 7 23 8 16 9 19 10 18 11 21 12
REMARK SMILES IDX 17 13 20 14 8 15 9 16 10 17 7 18 24 19 5 20 2 21 4 22 3 23
REMARK SMILES IDX 6 24 1 25
REMARK H PARENT 11 2
ROOT
ATOM      1  N   UNL     1       1.274   2.694  -1.028  1.00  0.00    -0.280 N 
ATOM      2  H   UNL     1       1.184   3.517  -1.664  1.00  0.00     0.180 HD
ENDROOT
BRANCH   1   3
ATOM      3  C   UNL     1       0.727   1.429  -1.441  1.00  0.00     0.049 A 
ATOM      4  C   UNL     1      -0.395  -1.019  -2.295  1.00  0.00     0.019 A 
ATOM      5  C   UNL     1       0.402  -0.964  -1.138  1.00  0.00     0.014 A 
ATOM      6  C   UNL     1      -0.616   0.161  -3.023  1.00  0.00     0.014 A 
ATOM      7  C   UNL     1       0.959   0.247  -0.717  1.00  0.00     0.027 A 
ATOM      8  C   UNL     1      -0.059   1.371  -2.601  1.00  0.00     0.027 A 
BRANCH   4   9
ATOM      9  C   UNL     1      -0.997  -2.289  -2.759  1.00  0.00     0.154 A 
ATOM     10  C   UNL     1      -2.096  -3.665  -3.919  1.00  0.00     0.191 A 
ATOM     11  N   UNL     1      -1.594  -4.423  -2.922  1.00  0.00    -0.222 NA
ATOM     12  O   UNL     1      -1.743  -2.404  -3.831  1.00  0.00    -0.441 OA
ATOM     13  C   UNL     1      -0.896  -3.541  -2.181  1.00  0.00     0.162 A 
ATOM     14  C   UNL     1      -2.933  -4.213  -5.024  1.00  0.00     0.111 C 
ENDBRANCH   4   9
ENDBRANCH   1   3
BRANCH   1  15
ATOM     15  S   UNL     1       1.931   2.991   0.550  1.00  0.00     0.262 S 
ATOM     16  O   UNL     1       3.240   2.261   0.675  1.00  0.00    -0.201 OA
ATOM     17  O   UNL     1       2.189   4.462   0.716  1.00  0.00    -0.201 OA
BRANCH  15  18
ATOM     18  C   UNL     1       0.791   2.465   1.802  1.00  0.00     0.090 A 
ATOM     19  C   UNL     1       1.248   1.597   2.808  1.00  0.00     0.026 A 
ATOM     20  C   UNL     1      -0.561   2.889   1.810  1.00  0.00    -0.031 A 
ATOM     21  C   UNL     1       0.376   1.121   3.797  1.00  0.00    -0.050 A 
ATOM     22  C   UNL     1      -1.424   2.409   2.809  1.00  0.00     0.005 A 
ATOM     23  C   UNL     1      -0.959   1.542   3.798  1.00  0.00     0.004 A 
ATOM     24  C   UNL     1      -1.118   3.802   0.750  1.00  0.00     0.046 C 
ATOM     25  C   UNL     1       0.886   0.219   4.882  1.00  0.00     0.044 C 
ENDBRANCH  15  18
ENDBRANCH   1  15
TORSDOF 4
