REMARK SMILES O=C1CCC(=O)N1c1ccc(S(=O)(=O)NC[C@@H]2CCOC2)cn1
REMARK SMILES IDX 12 1 13 2 14 3 11 4 8 5 9 6 23 7 10 8 22 9 7 10 1 11 2 12
REMARK SMILES IDX 3 13 4 14 5 15 6 16 15 17 16 19 17 20 18 21 21 22 19 23
REMARK SMILES IDX 20 24
REMARK H PARENT 15 18
ROOT
ATOM      1  S   UNL     1      -0.469  -1.720  -2.593  1.00  0.00     0.242 S 
ATOM      2  O   UNL     1       0.405  -2.596  -3.446  1.00  0.00    -0.207 OA
ATOM      3  O   UNL     1      -1.334  -0.887  -3.498  1.00  0.00    -0.207 OA
ENDROOT
BRANCH   1   4
ATOM      4  C   UNL     1       0.551  -0.677  -1.605  1.00  0.00     0.100 A 
ATOM      5  C   UNL     1       2.130   0.978  -0.011  1.00  0.00     0.142 A 
ATOM      6  C   UNL     1       2.476  -0.374  -0.170  1.00  0.00     0.049 A 
ATOM      7  N   UNL     1       1.012   1.454  -0.626  1.00  0.00    -0.237 NA
ATOM      8  C   UNL     1       1.682  -1.198  -0.970  1.00  0.00     0.027 A 
ATOM      9  C   UNL     1       0.226   0.669  -1.410  1.00  0.00     0.135 A 
BRANCH   5  10
ATOM     10  N   UNL     1       2.917   1.857   0.813  1.00  0.00    -0.234 N 
ATOM     11  O   UNL     1       1.253   3.397   1.461  1.00  0.00    -0.274 OA
ATOM     12  C   UNL     1       2.459   3.032   1.462  1.00  0.00     0.235 C 
ATOM     13  C   UNL     1       3.542   3.780   2.165  1.00  0.00     0.111 C 
ATOM     14  C   UNL     1       4.808   2.945   1.890  1.00  0.00     0.111 C 
ATOM     15  C   UNL     1       4.319   1.820   1.040  1.00  0.00     0.235 C 
ATOM     16  O   UNL     1       5.084   0.959   0.529  1.00  0.00    -0.274 OA
ENDBRANCH   5  10
ENDBRANCH   1   4
BRANCH   1  17
ATOM     17  N   UNL     1      -1.471  -2.720  -1.585  1.00  0.00    -0.211 NA
ATOM     18  H   UNL     1      -0.827  -3.285  -0.984  1.00  0.00     0.141 HD
BRANCH  17  19
ATOM     19  C   UNL     1      -2.292  -1.879  -0.710  1.00  0.00     0.105 C 
BRANCH  19  20
ATOM     20  C   UNL     1      -3.283  -2.748   0.082  1.00  0.00     0.032 C 
ATOM     21  C   UNL     1      -4.293  -3.445  -0.785  1.00  0.00     0.036 C 
ATOM     22  C   UNL     1      -4.164  -1.936   1.015  1.00  0.00     0.165 C 
ATOM     23  C   UNL     1      -5.502  -3.549   0.126  1.00  0.00     0.160 C 
ATOM     24  O   UNL     1      -5.401  -2.595   1.160  1.00  0.00    -0.381 OA
ENDBRANCH  19  20
ENDBRANCH  17  19
ENDBRANCH   1  17
TORSDOF 5
