REMARK SMILES COc1ccc2nc(NC(=O)N3CCC[C@@H](Nc4ccccc4)C3)sc2n1
REMARK SMILES IDX 9 1 10 2 11 3 8 5 3 6 4 7 27 8 5 9 26 10 6 11 25 12 7 13
REMARK SMILES IDX 2 14 1 15 12 16 13 17 24 18 14 19 16 20 15 21 17 22 18 24
REMARK SMILES IDX 19 25 23 26 20 27 22 28 21 29
REMARK H PARENT 9 4 17 23
ROOT
ATOM      1  N   UNL     1      -0.523   1.005   0.238  1.00  0.00    -0.283 N 
ATOM      2  C   UNL     1       0.386   1.991   0.751  1.00  0.00     0.323 C 
ATOM      3  O   UNL     1      -0.011   2.838   1.598  1.00  0.00    -0.248 OA
ATOM      4  H   UNL     1      -0.314   0.574  -0.691  1.00  0.00     0.174 HD
ENDROOT
BRANCH   1   5
ATOM      5  C   UNL     1      -1.726   0.593   0.902  1.00  0.00     0.193 A 
ATOM      6  C   UNL     1      -5.570  -0.917   3.108  1.00  0.00     0.214 A 
ATOM      7  C   UNL     1      -5.731  -1.500   1.833  1.00  0.00     0.071 A 
ATOM      8  N   UNL     1      -4.473  -0.144   3.376  1.00  0.00    -0.201 NA
ATOM      9  C   UNL     1      -4.763  -1.288   0.838  1.00  0.00     0.037 A 
ATOM     10  C   UNL     1      -3.546   0.057   2.407  1.00  0.00     0.149 A 
ATOM     11  C   UNL     1      -3.661  -0.494   1.147  1.00  0.00     0.103 A 
ATOM     12  S   UNL     1      -2.133   0.950   2.516  1.00  0.00    -0.076 S 
ATOM     13  N   UNL     1      -2.643  -0.205   0.298  1.00  0.00    -0.218 NA
BRANCH   6  14
ATOM     14  O   UNL     1      -6.541  -1.141   4.088  1.00  0.00    -0.481 OA
ATOM     15  C   UNL     1      -6.453  -0.594   5.398  1.00  0.00     0.280 C 
ENDBRANCH   6  14
ENDBRANCH   1   5
BRANCH   2  16
ATOM     16  N   UNL     1       1.738   2.055   0.259  1.00  0.00    -0.322 N 
ATOM     17  C   UNL     1       2.487   3.316   0.315  1.00  0.00     0.121 C 
ATOM     18  C   UNL     1       2.494   0.822   0.006  1.00  0.00     0.146 C 
ATOM     19  C   UNL     1       3.346   3.476  -0.944  1.00  0.00     0.024 C 
ATOM     20  C   UNL     1       3.320   0.967  -1.282  1.00  0.00     0.098 C 
ATOM     21  C   UNL     1       4.202   2.227  -1.190  1.00  0.00     0.028 C 
BRANCH  20  22
ATOM     22  N   UNL     1       4.151  -0.226  -1.489  1.00  0.00    -0.381 N 
ATOM     23  H   UNL     1       5.181  -0.144  -1.322  1.00  0.00     0.160 HD
BRANCH  22  24
ATOM     24  C   UNL     1       3.643  -1.516  -1.887  1.00  0.00     0.034 A 
ATOM     25  C   UNL     1       2.308  -1.702  -2.305  1.00  0.00     0.025 A 
ATOM     26  C   UNL     1       4.507  -2.625  -1.872  1.00  0.00     0.025 A 
ATOM     27  C   UNL     1       1.856  -2.970  -2.684  1.00  0.00     0.002 A 
ATOM     28  C   UNL     1       4.049  -3.890  -2.253  1.00  0.00     0.002 A 
ATOM     29  C   UNL     1       2.725  -4.062  -2.658  1.00  0.00     0.000 A 
ENDBRANCH  22  24
ENDBRANCH  20  22
ENDBRANCH   2  16
TORSDOF 5
