REMARK SMILES O=C1N[C@@]2(CCc3ccccc32)C(=O)N1Cc1ncc(Cl)cc1Cl
REMARK SMILES IDX 16 1 15 2 1 3 2 4 3 5 4 6 13 7 5 8 12 9 14 10 6 11 11 12
REMARK SMILES IDX 7 13 10 14 8 15 9 16 17 18 18 19 23 20 19 21 22 22 20 23
REMARK SMILES IDX 24 24 21 25
REMARK H PARENT 3 17
ROOT
ATOM      1  C   UNL     1      -1.479   2.845  -1.575  1.00  0.00     0.188 C 
ENDROOT
BRANCH   1   2
ATOM      2  N   UNL     1      -1.272   1.465  -2.013  1.00  0.00    -0.256 N 
ATOM      3  O   UNL     1      -3.474   0.626  -1.835  1.00  0.00    -0.248 OA
ATOM      4  C   UNL     1      -2.232   0.423  -1.896  1.00  0.00     0.325 C 
ATOM      5  N   UNL     1      -1.653  -0.872  -1.813  1.00  0.00    -0.319 N 
ATOM      6  C   UNL     1      -0.201  -0.709  -1.816  1.00  0.00     0.147 C 
ATOM      7  C   UNL     1      -0.026   0.775  -1.979  1.00  0.00     0.261 C 
ATOM      8  C   UNL     1       0.477  -1.548  -2.926  1.00  0.00     0.048 C 
ATOM      9  C   UNL     1       0.397  -1.203  -0.549  1.00  0.00    -0.010 A 
ATOM     10  O   UNL     1       1.089   1.357  -2.049  1.00  0.00    -0.271 OA
ATOM     11  C   UNL     1       1.490  -2.479  -2.227  1.00  0.00     0.039 C 
ATOM     12  C   UNL     1       0.108  -0.773   0.751  1.00  0.00     0.007 A 
ATOM     13  C   UNL     1       1.332  -2.180  -0.782  1.00  0.00    -0.042 A 
ATOM     14  C   UNL     1       0.795  -1.360   1.824  1.00  0.00     0.000 A 
ATOM     15  C   UNL     1       2.027  -2.778   0.273  1.00  0.00     0.004 A 
ATOM     16  C   UNL     1       1.754  -2.361   1.585  1.00  0.00     0.000 A 
ATOM     17  H   UNL     1      -2.175  -1.766  -1.672  1.00  0.00     0.166 HD
ENDBRANCH   1   2
BRANCH   1  18
ATOM     18  C   UNL     1      -1.453   2.916  -0.071  1.00  0.00     0.079 A 
ATOM     19  N   UNL     1      -2.556   2.497   0.611  1.00  0.00    -0.256 NA
ATOM     20  C   UNL     1      -0.308   3.318   0.651  1.00  0.00     0.065 A 
ATOM     21  C   UNL     1      -2.600   2.459   1.968  1.00  0.00     0.132 A 
ATOM     22  C   UNL     1      -0.339   3.280   2.049  1.00  0.00     0.044 A 
ATOM     23  C   UNL     1      -1.487   2.848   2.714  1.00  0.00     0.060 A 
ATOM     24  Cl  UNL     1       1.163   3.878  -0.136  1.00  0.00    -0.082 Cl
ATOM     25  Cl  UNL     1      -1.530   2.791   4.466  1.00  0.00    -0.083 Cl
ENDBRANCH   1  18
TORSDOF 2
