REMARK SMILES O=C(c1ccc2c(c1)[nH]c(=O)n2C1CCCC1)N1CC[C@H](Oc2cccc(F)c2)C1
REMARK SMILES IDX 18 1 19 2 20 3 21 4 30 5 2 6 1 7 3 8 4 9 8 10 5 11 7 12 6 13
REMARK SMILES IDX 9 14 12 15 10 16 11 17 13 19 14 20 17 21 15 22 16 23 22 24
REMARK SMILES IDX 23 25 24 26 29 27 25 28 27 29 26 30 28 31
REMARK H PARENT 9 18
ROOT
ATOM      1  N   UNL     1       1.432  -1.464   2.152  1.00  0.00    -0.335 N 
ATOM      2  C   UNL     1       2.039  -2.008   0.948  1.00  0.00     0.124 C 
ATOM      3  C   UNL     1       2.544  -3.392   1.337  1.00  0.00     0.068 C 
ATOM      4  C   UNL     1       1.782  -3.771   2.609  1.00  0.00     0.194 C 
ATOM      5  C   UNL     1       1.365  -2.435   3.229  1.00  0.00     0.165 C 
ENDROOT
BRANCH   1   6
ATOM      6  C   UNL     1       1.143  -0.070   2.349  1.00  0.00     0.254 C 
ATOM      7  O   UNL     1       1.104   0.397   3.520  1.00  0.00    -0.269 OA
BRANCH   6   8
ATOM      8  C   UNL     1       0.889   0.833   1.211  1.00  0.00     0.042 A 
ATOM      9  C   UNL     1       0.009   0.445   0.169  1.00  0.00     0.016 A 
ATOM     10  C   UNL     1       1.491   2.109   1.181  1.00  0.00     0.042 A 
ATOM     11  C   UNL     1      -0.259   1.310  -0.908  1.00  0.00     0.029 A 
ATOM     12  C   UNL     1       1.212   2.936   0.096  1.00  0.00     0.067 A 
ATOM     13  C   UNL     1       0.367   2.558  -0.914  1.00  0.00     0.069 A 
ATOM     14  N   UNL     1       1.690   4.167  -0.146  1.00  0.00    -0.306 N 
ATOM     15  N   UNL     1       0.286   3.556  -1.823  1.00  0.00    -0.289 N 
ATOM     16  C   UNL     1       1.114   4.513  -1.319  1.00  0.00     0.326 A 
ATOM     17  O   UNL     1       1.333   5.617  -1.887  1.00  0.00    -0.248 OA
ATOM     18  H   UNL     1       2.357   4.723   0.432  1.00  0.00     0.171 HD
BRANCH  15  19
ATOM     19  C   UNL     1      -0.498   3.593  -3.071  1.00  0.00     0.092 C 
ATOM     20  C   UNL     1       0.404   3.774  -4.304  1.00  0.00     0.025 C 
ATOM     21  C   UNL     1      -1.504   4.757  -3.079  1.00  0.00     0.025 C 
ATOM     22  C   UNL     1       0.044   5.126  -4.914  1.00  0.00     0.002 C 
ATOM     23  C   UNL     1      -1.374   5.416  -4.450  1.00  0.00     0.002 C 
ENDBRANCH  15  19
ENDBRANCH   6   8
ENDBRANCH   1   6
BRANCH   4  24
ATOM     24  O   UNL     1       0.635  -4.548   2.257  1.00  0.00    -0.488 OA
BRANCH  24  25
ATOM     25  C   UNL     1      -0.221  -5.195   3.164  1.00  0.00     0.122 A 
ATOM     26  C   UNL     1      -0.010  -5.170   4.557  1.00  0.00     0.046 A 
ATOM     27  C   UNL     1      -1.328  -5.887   2.654  1.00  0.00     0.085 A 
ATOM     28  C   UNL     1      -0.905  -5.812   5.415  1.00  0.00     0.007 A 
ATOM     29  C   UNL     1      -2.218  -6.533   3.514  1.00  0.00     0.126 A 
ATOM     30  C   UNL     1      -2.011  -6.489   4.895  1.00  0.00     0.039 A 
ATOM     31  F   UNL     1      -3.290  -7.195   3.010  1.00  0.00    -0.207 F 
ENDBRANCH  24  25
ENDBRANCH   4  24
TORSDOF 5
