REMARK SMILES CCN(Cc1cn(Cc2nccs2)nn1)c1cccc(CO)c1
REMARK SMILES IDX 3 1 2 2 1 3 4 4 5 5 6 6 15 7 7 8 14 9 8 10 9 11 10 12 13 13
REMARK SMILES IDX 11 14 12 15 16 16 17 17 23 18 18 19 20 20 19 21 21 22 22 23
REMARK H PARENT 22 24
ROOT
ATOM      1  N   UNL     1       0.981  -1.396  -0.247  1.00  0.00    -0.366 N 
ENDROOT
BRANCH   1   2
ATOM      2  C   UNL     1       0.650  -2.281   0.882  1.00  0.00     0.113 C 
ATOM      3  C   UNL     1       1.256  -1.750   2.178  1.00  0.00     0.027 C 
ENDBRANCH   1   2
BRANCH   1   4
ATOM      4  C   UNL     1      -0.100  -0.674  -0.934  1.00  0.00     0.176 C 
BRANCH   4   5
ATOM      5  C   UNL     1      -0.662   0.400  -0.053  1.00  0.00     0.102 A 
ATOM      6  C   UNL     1      -1.722   0.279   0.818  1.00  0.00     0.137 A 
ATOM      7  N   UNL     1      -0.159   1.646   0.056  1.00  0.00    -0.134 NA
ATOM      8  N   UNL     1      -1.830   1.468   1.434  1.00  0.00    -0.245 N 
ATOM      9  N   UNL     1      -0.895   2.276   0.960  1.00  0.00    -0.067 NA
BRANCH   8  10
ATOM     10  C   UNL     1      -2.847   1.860   2.401  1.00  0.00     0.213 C 
BRANCH  10  11
ATOM     11  C   UNL     1      -4.047   2.388   1.686  1.00  0.00     0.114 A 
ATOM     12  N   UNL     1      -4.194   3.682   1.330  1.00  0.00    -0.248 NA
ATOM     13  S   UNL     1      -5.316   1.445   1.114  1.00  0.00    -0.125 S 
ATOM     14  C   UNL     1      -5.340   3.886   0.627  1.00  0.00     0.123 A 
ATOM     15  C   UNL     1      -6.107   2.748   0.405  1.00  0.00     0.087 A 
ENDBRANCH  10  11
ENDBRANCH   8  10
ENDBRANCH   4   5
ENDBRANCH   1   4
BRANCH   1  16
ATOM     16  C   UNL     1       2.350  -1.239  -0.680  1.00  0.00     0.037 A 
ATOM     17  C   UNL     1       3.180  -2.361  -0.856  1.00  0.00     0.026 A 
ATOM     18  C   UNL     1       2.877   0.042  -0.924  1.00  0.00     0.032 A 
ATOM     19  C   UNL     1       4.508  -2.203  -1.259  1.00  0.00     0.003 A 
ATOM     20  C   UNL     1       4.207   0.203  -1.343  1.00  0.00    -0.021 A 
ATOM     21  C   UNL     1       5.024  -0.927  -1.495  1.00  0.00     0.006 A 
BRANCH  20  22
ATOM     22  C   UNL     1       4.770   1.580  -1.561  1.00  0.00     0.191 C 
BRANCH  22  23
ATOM     23  O   UNL     1       5.201   2.121  -0.343  1.00  0.00    -0.392 OA
ATOM     24  H   UNL     1       6.061   1.677  -0.123  1.00  0.00     0.211 HD
ENDBRANCH  22  23
ENDBRANCH  20  22
ENDBRANCH   1  16
TORSDOF 8
