REMARK SMILES O=C(N[C@H]1C[C@H]2CNC[C@H]2C1)c1ccc(OCC2CCCCC2)cc1
REMARK SMILES IDX 12 1 13 2 14 3 15 4 24 5 25 6 2 7 1 8 3 9 4 11 11 12 5 13
REMARK SMILES IDX 10 14 6 15 9 16 7 17 8 18 16 20 17 21 18 22 19 23 23 24
REMARK SMILES IDX 20 25 22 26 21 27
REMARK H PARENT 3 10 8 19
ROOT
ATOM      1  C   UNL     1      -0.018  -0.679  -2.599  1.00  0.00     0.040 A 
ATOM      2  C   UNL     1      -0.126  -0.707  -1.197  1.00  0.00     0.017 A 
ATOM      3  C   UNL     1       0.682  -1.560  -0.440  1.00  0.00     0.047 A 
ATOM      4  C   UNL     1       1.617  -2.401  -1.073  1.00  0.00     0.119 A 
ATOM      5  C   UNL     1       1.732  -2.365  -2.467  1.00  0.00     0.047 A 
ATOM      6  C   UNL     1       0.929  -1.508  -3.225  1.00  0.00     0.017 A 
ENDROOT
BRANCH   1   7
ATOM      7  C   UNL     1      -0.865   0.225  -3.411  1.00  0.00     0.251 C 
ATOM      8  O   UNL     1      -0.431   0.646  -4.519  1.00  0.00    -0.269 OA
ATOM      9  N   UNL     1      -2.179   0.603  -2.969  1.00  0.00    -0.349 N 
ATOM     10  H   UNL     1      -2.578   0.145  -2.119  1.00  0.00     0.164 HD
BRANCH   9  11
ATOM     11  C   UNL     1      -2.907   1.726  -3.566  1.00  0.00     0.083 C 
ATOM     12  C   UNL     1      -2.653   3.015  -2.800  1.00  0.00     0.030 C 
ATOM     13  C   UNL     1      -4.415   1.532  -3.494  1.00  0.00     0.030 C 
ATOM     14  C   UNL     1      -3.889   3.887  -3.062  1.00  0.00     0.009 C 
ATOM     15  C   UNL     1      -4.997   2.951  -3.522  1.00  0.00     0.009 C 
ATOM     16  C   UNL     1      -4.435   4.573  -1.807  1.00  0.00     0.085 C 
ATOM     17  C   UNL     1      -6.140   3.162  -2.529  1.00  0.00     0.085 C 
ATOM     18  N   UNL     1      -5.578   3.792  -1.335  1.00  0.00    -0.316 NA
ATOM     19  H   UNL     1      -5.210   3.030  -0.717  1.00  0.00     0.122 HD
ENDBRANCH   9  11
ENDBRANCH   1   7
BRANCH   4  20
ATOM     20  O   UNL     1       2.445  -3.279  -0.359  1.00  0.00    -0.493 OA
BRANCH  20  21
ATOM     21  C   UNL     1       2.461  -3.398   1.062  1.00  0.00     0.233 C 
BRANCH  21  22
ATOM     22  C   UNL     1       3.489  -4.464   1.487  1.00  0.00     0.027 C 
ATOM     23  C   UNL     1       4.927  -4.115   1.041  1.00  0.00     0.007 C 
ATOM     24  C   UNL     1       3.438  -4.735   3.007  1.00  0.00     0.007 C 
ATOM     25  C   UNL     1       5.543  -2.981   1.873  1.00  0.00     0.000 C 
ATOM     26  C   UNL     1       4.061  -3.596   3.828  1.00  0.00     0.000 C 
ATOM     27  C   UNL     1       5.494  -3.305   3.370  1.00  0.00     0.000 C 
ENDBRANCH  21  22
ENDBRANCH  20  21
ENDBRANCH   4  20
TORSDOF 5
