REMARK SMILES CC1(C)NC(=O)C[C@@H]1C(=O)N1CCC[C@]1(C)c1ccccc1
REMARK SMILES IDX 9 1 10 2 8 3 2 4 4 5 5 6 7 7 6 8 1 9 3 10 11 12 12 13 15 14
REMARK SMILES IDX 13 15 14 16 16 17 17 18 18 19 22 20 19 21 21 22 20 23
REMARK H PARENT 4 11
ROOT
ATOM      1  C   UNL     1      -0.001  -0.578   0.144  1.00  0.00     0.229 C 
ATOM      2  O   UNL     1       1.059  -1.030  -0.372  1.00  0.00    -0.274 OA
ENDROOT
BRANCH   1   3
ATOM      3  C   UNL     1      -1.123  -1.545   0.487  1.00  0.00     0.113 C 
ATOM      4  C   UNL     1      -0.862  -2.370   1.805  1.00  0.00     0.046 C 
ATOM      5  N   UNL     1      -0.491  -3.699   1.346  1.00  0.00    -0.350 N 
ATOM      6  C   UNL     1      -0.765  -3.828  -0.032  1.00  0.00     0.221 C 
ATOM      7  C   UNL     1      -1.306  -2.595  -0.636  1.00  0.00     0.116 C 
ATOM      8  O   UNL     1      -0.600  -4.906  -0.661  1.00  0.00    -0.275 OA
ATOM      9  C   UNL     1      -2.162  -2.478   2.624  1.00  0.00     0.035 C 
ATOM     10  C   UNL     1       0.257  -1.811   2.709  1.00  0.00     0.035 C 
ATOM     11  H   UNL     1      -0.214  -4.493   1.967  1.00  0.00     0.164 HD
ENDBRANCH   1   3
BRANCH   1  12
ATOM     12  N   UNL     1      -0.095   0.832   0.455  1.00  0.00    -0.333 N 
ATOM     13  C   UNL     1      -1.253   1.439   1.099  1.00  0.00     0.120 C 
ATOM     14  C   UNL     1       0.988   1.797   0.228  1.00  0.00     0.065 C 
ATOM     15  C   UNL     1      -0.838   2.857   1.456  1.00  0.00     0.024 C 
ATOM     16  C   UNL     1       0.366   3.165   0.576  1.00  0.00     0.035 C 
ATOM     17  C   UNL     1       2.135   1.474   1.216  1.00  0.00     0.040 C 
BRANCH  14  18
ATOM     18  C   UNL     1       1.435   1.793  -1.242  1.00  0.00    -0.023 A 
ATOM     19  C   UNL     1       2.764   2.085  -1.620  1.00  0.00     0.006 A 
ATOM     20  C   UNL     1       0.479   1.599  -2.264  1.00  0.00     0.006 A 
ATOM     21  C   UNL     1       3.131   2.119  -2.969  1.00  0.00     0.000 A 
ATOM     22  C   UNL     1       0.853   1.634  -3.610  1.00  0.00     0.000 A 
ATOM     23  C   UNL     1       2.178   1.887  -3.962  1.00  0.00     0.000 A 
ENDBRANCH  14  18
ENDBRANCH   1  12
TORSDOF 3
