REMARK SMILES Nc1ccc(C(=O)Nc2ccc(Cl)cc2OCC(F)(F)F)cn1
REMARK SMILES IDX 9 1 10 2 11 3 12 4 13 5 14 6 15 7 8 8 6 9 7 10 5 12 2 13
REMARK SMILES IDX 3 14 23 15 4 16 22 17 1 18 16 21 17 22 18 23 19 24 20 25
REMARK SMILES IDX 21 26
REMARK H PARENT 8 11 1 19 1 20
ROOT
ATOM      1  C   UNL     1       1.296  -0.425  -1.887  1.00  0.00     0.084 A 
ATOM      2  C   UNL     1       2.459  -0.424  -2.671  1.00  0.00     0.031 A 
ATOM      3  C   UNL     1       2.377  -0.464  -4.063  1.00  0.00     0.023 A 
ATOM      4  C   UNL     1       1.130  -0.521  -4.689  1.00  0.00     0.044 A 
ATOM      5  Cl  UNL     1       1.029  -0.570  -6.439  1.00  0.00    -0.084 Cl
ATOM      6  C   UNL     1      -0.038  -0.551  -3.920  1.00  0.00     0.069 A 
ATOM      7  C   UNL     1       0.033  -0.518  -2.513  1.00  0.00     0.144 A 
ENDROOT
BRANCH   1   8
ATOM      8  N   UNL     1       1.418  -0.386  -0.456  1.00  0.00    -0.319 N 
ATOM      9  C   UNL     1       0.599   0.452   0.376  1.00  0.00     0.257 C 
ATOM     10  O   UNL     1       0.017   1.451  -0.130  1.00  0.00    -0.269 OA
ATOM     11  H   UNL     1       2.245  -0.855  -0.022  1.00  0.00     0.170 HD
BRANCH   9  12
ATOM     12  C   UNL     1       0.453   0.177   1.825  1.00  0.00     0.058 A 
ATOM     13  C   UNL     1       0.132  -0.300   4.556  1.00  0.00     0.123 A 
ATOM     14  C   UNL     1       0.619  -1.319   3.731  1.00  0.00     0.047 A 
ATOM     15  N   UNL     1      -0.186   0.908   4.020  1.00  0.00    -0.239 NA
ATOM     16  C   UNL     1       0.776  -1.079   2.365  1.00  0.00     0.019 A 
ATOM     17  C   UNL     1      -0.043   1.166   2.693  1.00  0.00     0.127 A 
BRANCH  13  18
ATOM     18  N   UNL     1      -0.037  -0.521   5.957  1.00  0.00    -0.384 N 
ATOM     19  H   UNL     1       0.200  -1.443   6.388  1.00  0.00     0.158 HD
ATOM     20  H   UNL     1      -0.403   0.241   6.569  1.00  0.00     0.158 HD
ENDBRANCH  13  18
ENDBRANCH   9  12
ENDBRANCH   1   8
BRANCH   7  21
ATOM     21  O   UNL     1      -1.117  -0.600  -1.713  1.00  0.00    -0.482 OA
BRANCH  21  22
ATOM     22  C   UNL     1      -2.451  -0.679  -2.209  1.00  0.00     0.344 C 
BRANCH  22  23
ATOM     23  C   UNL     1      -3.426  -0.727  -1.040  1.00  0.00     0.422 C 
ATOM     24  F   UNL     1      -4.721  -0.802  -1.519  1.00  0.00    -0.167 F 
ATOM     25  F   UNL     1      -3.167  -1.838  -0.258  1.00  0.00    -0.167 F 
ATOM     26  F   UNL     1      -3.292   0.414  -0.269  1.00  0.00    -0.167 F 
ENDBRANCH  22  23
ENDBRANCH  21  22
ENDBRANCH   7  21
TORSDOF 6
