REMARK SMILES O=C(c1ccc2c(c1)[nH]c(=O)n2C1CCCC1)N1CC[C@H](Oc2cccc(F)c2)C1
REMARK SMILES IDX 18 1 19 2 20 3 21 4 30 5 2 6 1 7 3 8 4 9 8 10 5 11 7 12 6 13
REMARK SMILES IDX 9 14 12 15 10 16 11 17 13 19 14 20 17 21 15 22 16 23 22 24
REMARK SMILES IDX 23 25 24 26 29 27 25 28 27 29 26 30 28 31
REMARK H PARENT 9 18
ROOT
ATOM      1  N   UNL     1      -1.630  -2.293  -1.616  1.00  0.00    -0.335 N 
ATOM      2  C   UNL     1      -2.732  -3.239  -1.631  1.00  0.00     0.124 C 
ATOM      3  C   UNL     1      -2.387  -4.289  -0.583  1.00  0.00     0.068 C 
ATOM      4  C   UNL     1      -1.292  -3.672   0.289  1.00  0.00     0.194 C 
ATOM      5  C   UNL     1      -0.649  -2.595  -0.586  1.00  0.00     0.165 C 
ENDROOT
BRANCH   1   6
ATOM      6  C   UNL     1      -1.424  -1.319  -2.654  1.00  0.00     0.254 C 
ATOM      7  O   UNL     1      -1.903  -1.524  -3.802  1.00  0.00    -0.269 OA
BRANCH   6   8
ATOM      8  C   UNL     1      -0.661  -0.079  -2.406  1.00  0.00     0.042 A 
ATOM      9  C   UNL     1      -0.850   0.652  -1.204  1.00  0.00     0.016 A 
ATOM     10  C   UNL     1       0.229   0.408  -3.388  1.00  0.00     0.042 A 
ATOM     11  C   UNL     1      -0.134   1.837  -0.962  1.00  0.00     0.029 A 
ATOM     12  C   UNL     1       0.921   1.585  -3.115  1.00  0.00     0.067 A 
ATOM     13  C   UNL     1       0.754   2.278  -1.946  1.00  0.00     0.069 A 
ATOM     14  N   UNL     1       1.820   2.210  -3.892  1.00  0.00    -0.306 N 
ATOM     15  N   UNL     1       1.553   3.371  -1.960  1.00  0.00    -0.289 N 
ATOM     16  C   UNL     1       2.185   3.288  -3.161  1.00  0.00     0.326 A 
ATOM     17  O   UNL     1       3.033   4.130  -3.562  1.00  0.00    -0.248 OA
ATOM     18  H   UNL     1       2.161   1.928  -4.838  1.00  0.00     0.171 HD
BRANCH  15  19
ATOM     19  C   UNL     1       1.746   4.415  -0.939  1.00  0.00     0.092 C 
ATOM     20  C   UNL     1       0.441   5.140  -0.583  1.00  0.00     0.025 C 
ATOM     21  C   UNL     1       2.313   3.852   0.363  1.00  0.00     0.025 C 
ATOM     22  C   UNL     1       0.347   5.148   0.941  1.00  0.00     0.002 C 
ATOM     23  C   UNL     1       1.707   4.705   1.462  1.00  0.00     0.002 C 
ENDBRANCH  15  19
ENDBRANCH   6   8
ENDBRANCH   1   6
BRANCH   4  24
ATOM     24  O   UNL     1      -1.891  -3.087   1.449  1.00  0.00    -0.488 OA
BRANCH  24  25
ATOM     25  C   UNL     1      -1.191  -2.579   2.555  1.00  0.00     0.122 A 
ATOM     26  C   UNL     1      -1.927  -1.987   3.590  1.00  0.00     0.046 A 
ATOM     27  C   UNL     1       0.213  -2.642   2.662  1.00  0.00     0.085 A 
ATOM     28  C   UNL     1      -1.280  -1.461   4.711  1.00  0.00     0.007 A 
ATOM     29  C   UNL     1       0.859  -2.113   3.785  1.00  0.00     0.126 A 
ATOM     30  C   UNL     1       0.113  -1.523   4.808  1.00  0.00     0.039 A 
ATOM     31  F   UNL     1       2.210  -2.173   3.880  1.00  0.00    -0.207 F 
ENDBRANCH  24  25
ENDBRANCH   4  24
TORSDOF 5
