REMARK SMILES O=S1(=O)CCCN1c1cccc(CNc2ncnc3nc[nH]c23)c1
REMARK SMILES IDX 13 1 12 2 8 3 9 4 24 5 10 6 11 7 7 8 1 9 2 10 3 11 4 12 5 13
REMARK SMILES IDX 6 14 14 15 15 17 16 18 23 19 17 20 22 21 19 22 18 23 21 24
REMARK SMILES IDX 20 25
REMARK H PARENT 14 16 22 26
ROOT
ATOM      1  C   UNL     1       1.142   0.218   2.834  1.00  0.00     0.150 C 
ENDROOT
BRANCH   1   2
ATOM      2  C   UNL     1       1.079   1.047   1.579  1.00  0.00    -0.027 A 
ATOM      3  C   UNL     1      -0.206   1.910  -0.316  1.00  0.00     0.052 A 
ATOM      4  C   UNL     1       0.949   2.582  -0.763  1.00  0.00     0.027 A 
ATOM      5  C   UNL     1      -0.127   1.149   0.867  1.00  0.00     0.032 A 
ATOM      6  C   UNL     1       2.149   2.482  -0.055  1.00  0.00     0.003 A 
ATOM      7  C   UNL     1       2.217   1.717   1.109  1.00  0.00     0.006 A 
BRANCH   3   8
ATOM      8  N   UNL     1      -1.445   2.003  -1.054  1.00  0.00    -0.270 N 
ATOM      9  O   UNL     1      -3.501   1.190   0.432  1.00  0.00    -0.206 OA
ATOM     10  S   UNL     1      -2.770   0.928  -0.854  1.00  0.00     0.235 S 
ATOM     11  O   UNL     1      -2.341  -0.509  -0.966  1.00  0.00    -0.206 OA
ATOM     12  C   UNL     1      -3.713   1.436  -2.250  1.00  0.00     0.162 C 
ATOM     13  C   UNL     1      -3.147   2.812  -2.613  1.00  0.00     0.041 C 
ATOM     14  C   UNL     1      -1.666   2.903  -2.185  1.00  0.00     0.136 C 
ENDBRANCH   3   8
ENDBRANCH   1   2
BRANCH   1  15
ATOM     15  N   UNL     1       0.839  -1.180   2.537  1.00  0.00    -0.364 N 
ATOM     16  H   UNL     1      -0.067  -1.568   2.881  1.00  0.00     0.162 HD
BRANCH  15  17
ATOM     17  C   UNL     1       1.733  -2.017   1.788  1.00  0.00     0.155 A 
ATOM     18  N   UNL     1       2.963  -1.562   1.397  1.00  0.00    -0.217 NA
ATOM     19  C   UNL     1       1.391  -3.317   1.424  1.00  0.00     0.128 A 
ATOM     20  C   UNL     1       3.825  -2.350   0.678  1.00  0.00     0.226 A 
ATOM     21  N   UNL     1       0.272  -4.017   1.647  1.00  0.00    -0.340 N 
ATOM     22  C   UNL     1       2.256  -4.078   0.714  1.00  0.00     0.182 A 
ATOM     23  N   UNL     1       3.472  -3.624   0.328  1.00  0.00    -0.215 NA
ATOM     24  C   UNL     1       0.512  -5.210   1.046  1.00  0.00     0.199 A 
ATOM     25  N   UNL     1       1.734  -5.288   0.453  1.00  0.00    -0.217 NA
ATOM     26  H   UNL     1      -0.592  -3.725   2.156  1.00  0.00     0.168 HD
ENDBRANCH  15  17
ENDBRANCH   1  15
TORSDOF 4
