REMARK SMILES C[C@@H](Nc1nc2ccccc2n2nnnc12)c1cnccn1
REMARK SMILES IDX 1 1 2 2 3 3 4 5 5 6 16 7 6 8 15 9 12 10 7 11 11 12 14 13
REMARK SMILES IDX 13 14 8 15 10 16 9 17 17 18 18 19 22 20 19 21 21 22 20 23
REMARK H PARENT 3 4
ROOT
ATOM      1  C   UNL     1      -2.993   0.880  -1.040  1.00  0.00     0.038 C 
ATOM      2  C   UNL     1      -2.219   0.155  -2.150  1.00  0.00     0.128 C 
ENDROOT
BRANCH   2   3
ATOM      3  N   UNL     1      -0.930   0.812  -2.416  1.00  0.00    -0.359 N 
ATOM      4  H   UNL     1      -0.766   1.159  -3.388  1.00  0.00     0.162 HD
BRANCH   3   5
ATOM      5  C   UNL     1       0.101   1.031  -1.435  1.00  0.00     0.174 A 
ATOM      6  N   UNL     1      -0.023   0.566  -0.153  1.00  0.00    -0.225 NA
ATOM      7  C   UNL     1       1.276   1.712  -1.757  1.00  0.00     0.222 A 
ATOM      8  C   UNL     1       0.956   0.756   0.785  1.00  0.00     0.091 A 
ATOM      9  N   UNL     1       1.636   2.256  -2.933  1.00  0.00    -0.105 NA
ATOM     10  N   UNL     1       2.229   1.899  -0.846  1.00  0.00    -0.188 N 
ATOM     11  C   UNL     1       0.802   0.268   2.087  1.00  0.00     0.031 A 
ATOM     12  C   UNL     1       2.137   1.452   0.431  1.00  0.00     0.095 A 
ATOM     13  N   UNL     1       2.840   2.776  -2.697  1.00  0.00    -0.023 NA
ATOM     14  N   UNL     1       3.204   2.563  -1.435  1.00  0.00    -0.039 NA
ATOM     15  C   UNL     1       1.816   0.471   3.031  1.00  0.00     0.002 A 
ATOM     16  C   UNL     1       3.149   1.653   1.379  1.00  0.00     0.031 A 
ATOM     17  C   UNL     1       2.984   1.161   2.679  1.00  0.00     0.002 A 
ENDBRANCH   3   5
ENDBRANCH   2   3
BRANCH   2  18
ATOM     18  C   UNL     1      -2.057  -1.320  -1.852  1.00  0.00     0.081 A 
ATOM     19  C   UNL     1      -3.177  -2.165  -1.820  1.00  0.00     0.137 A 
ATOM     20  N   UNL     1      -0.826  -1.859  -1.625  1.00  0.00    -0.256 NA
ATOM     21  N   UNL     1      -3.014  -3.488  -1.554  1.00  0.00    -0.261 NA
ATOM     22  C   UNL     1      -0.665  -3.181  -1.359  1.00  0.00     0.131 A 
ATOM     23  C   UNL     1      -1.783  -4.013  -1.321  1.00  0.00     0.131 A 
ENDBRANCH   2  18
TORSDOF 3
