REMARK SMILES c1ccc(Oc2ccnc(N[C@H]3CC[C@H]4OCC[C@@H]4C3)n2)cc1
REMARK SMILES IDX 6 1 7 2 8 3 9 4 10 5 21 6 5 7 4 8 1 9 2 10 23 11 3 12 22 13
REMARK SMILES IDX 11 14 12 16 13 17 20 18 14 19 19 20 15 21 18 22 16 23 17 24
REMARK H PARENT 11 15
ROOT
ATOM      1  C   UNL     1      -0.976   1.475  -2.680  1.00  0.00     0.224 A 
ATOM      2  C   UNL     1      -0.233   1.692  -3.841  1.00  0.00     0.089 A 
ATOM      3  C   UNL     1       1.155   1.573  -3.778  1.00  0.00     0.121 A 
ATOM      4  N   UNL     1       1.756   1.260  -2.601  1.00  0.00    -0.221 NA
ATOM      5  C   UNL     1       1.025   1.055  -1.473  1.00  0.00     0.226 A 
ATOM      6  N   UNL     1      -0.331   1.168  -1.521  1.00  0.00    -0.177 NA
ENDROOT
BRANCH   1   7
ATOM      7  O   UNL     1      -2.368   1.620  -2.716  1.00  0.00    -0.439 OA
BRANCH   7   8
ATOM      8  C   UNL     1      -3.248   1.144  -1.734  1.00  0.00     0.129 A 
ATOM      9  C   UNL     1      -5.062   0.245   0.210  1.00  0.00     0.000 A 
ATOM     10  C   UNL     1      -3.915  -0.503  -0.073  1.00  0.00     0.004 A 
ATOM     11  C   UNL     1      -5.313   1.429  -0.488  1.00  0.00     0.004 A 
ATOM     12  C   UNL     1      -3.014  -0.061  -1.046  1.00  0.00     0.047 A 
ATOM     13  C   UNL     1      -4.412   1.873  -1.461  1.00  0.00     0.047 A 
ENDBRANCH   7   8
ENDBRANCH   1   7
BRANCH   5  14
ATOM     14  N   UNL     1       1.690   0.744  -0.241  1.00  0.00    -0.351 N 
ATOM     15  H   UNL     1       2.734   0.782  -0.237  1.00  0.00     0.163 HD
BRANCH  14  16
ATOM     16  C   UNL     1       0.960   0.473   1.004  1.00  0.00     0.082 C 
ATOM     17  C   UNL     1       0.330  -0.951   0.963  1.00  0.00     0.027 C 
ATOM     18  C   UNL     1       1.876   0.679   2.243  1.00  0.00     0.031 C 
ATOM     19  C   UNL     1       1.348  -2.083   1.222  1.00  0.00     0.034 C 
ATOM     20  C   UNL     1       2.853  -0.496   2.371  1.00  0.00     0.022 C 
ATOM     21  C   UNL     1       2.091  -1.784   2.522  1.00  0.00     0.121 C 
ATOM     22  C   UNL     1       3.734  -0.554   3.582  1.00  0.00     0.035 C 
ATOM     23  O   UNL     1       3.037  -2.754   2.885  1.00  0.00    -0.378 OA
ATOM     24  C   UNL     1       3.961  -2.067   3.715  1.00  0.00     0.161 C 
ENDBRANCH  14  16
ENDBRANCH   5  14
TORSDOF 4
