REMARK SMILES O=C1CCC(=O)N1c1ccc(S(=O)(=O)NC[C@@H]2CCOC2)cn1
REMARK SMILES IDX 12 1 13 2 14 3 11 4 8 5 9 6 23 7 10 8 22 9 7 10 1 11 2 12
REMARK SMILES IDX 3 13 4 14 5 15 6 16 15 17 16 19 17 20 18 21 21 22 19 23
REMARK SMILES IDX 20 24
REMARK H PARENT 15 18
ROOT
ATOM      1  S   UNL     1       1.661  -2.711  -0.320  1.00  0.00     0.242 S 
ATOM      2  O   UNL     1       1.073  -3.890   0.406  1.00  0.00    -0.207 OA
ATOM      3  O   UNL     1       2.440  -3.203  -1.507  1.00  0.00    -0.207 OA
ENDROOT
BRANCH   1   4
ATOM      4  C   UNL     1       0.378  -1.643  -0.881  1.00  0.00     0.100 A 
ATOM      5  C   UNL     1      -1.619   0.089  -1.766  1.00  0.00     0.142 A 
ATOM      6  C   UNL     1      -1.931  -1.251  -1.489  1.00  0.00     0.049 A 
ATOM      7  N   UNL     1      -0.341   0.524  -1.587  1.00  0.00    -0.237 NA
ATOM      8  C   UNL     1      -0.927  -2.116  -1.050  1.00  0.00     0.027 A 
ATOM      9  C   UNL     1       0.652  -0.300  -1.160  1.00  0.00     0.135 A 
BRANCH   5  10
ATOM     10  N   UNL     1      -2.629   1.014  -2.211  1.00  0.00    -0.234 N 
ATOM     11  O   UNL     1      -4.062  -0.405  -3.441  1.00  0.00    -0.274 OA
ATOM     12  C   UNL     1      -3.772   0.743  -3.010  1.00  0.00     0.235 C 
ATOM     13  C   UNL     1      -4.558   1.966  -3.346  1.00  0.00     0.111 C 
ATOM     14  C   UNL     1      -3.755   3.113  -2.703  1.00  0.00     0.111 C 
ATOM     15  C   UNL     1      -2.607   2.423  -2.046  1.00  0.00     0.235 C 
ATOM     16  O   UNL     1      -1.715   3.028  -1.393  1.00  0.00    -0.274 OA
ENDBRANCH   5  10
ENDBRANCH   1   4
BRANCH   1  17
ATOM     17  N   UNL     1       2.725  -1.846   0.748  1.00  0.00    -0.211 NA
ATOM     18  H   UNL     1       3.517  -2.489   0.978  1.00  0.00     0.141 HD
BRANCH  17  19
ATOM     19  C   UNL     1       2.024  -1.520   1.993  1.00  0.00     0.105 C 
BRANCH  19  20
ATOM     20  C   UNL     1       2.874  -0.558   2.837  1.00  0.00     0.032 C 
ATOM     21  C   UNL     1       2.219  -0.186   4.137  1.00  0.00     0.036 C 
ATOM     22  C   UNL     1       3.080   0.798   2.180  1.00  0.00     0.165 C 
ATOM     23  C   UNL     1       2.759   1.207   4.397  1.00  0.00     0.160 C 
ATOM     24  O   UNL     1       3.205   1.777   3.186  1.00  0.00    -0.381 OA
ENDBRANCH  19  20
ENDBRANCH  17  19
ENDBRANCH   1  17
TORSDOF 5
