REMARK SMILES c1ccc2c(c1)OCC[C@@H]2Nc1nnc(-c2ccc3ccccc3n2)o1
REMARK SMILES IDX 15 1 14 2 13 3 12 4 26 5 16 6 21 7 22 8 20 9 23 10 19 11
REMARK SMILES IDX 24 12 18 13 25 14 17 15 11 16 10 18 9 19 4 20 8 21 3 22 5 23
REMARK SMILES IDX 7 24 2 25 6 26 1 27
REMARK H PARENT 11 17
ROOT
ATOM      1  C   UNL     1       0.959  -0.397  -2.302  1.00  0.00     0.268 A 
ATOM      2  N   UNL     1       0.866   0.537  -3.270  1.00  0.00    -0.104 NA
ATOM      3  N   UNL     1      -0.278   1.173  -3.069  1.00  0.00    -0.090 NA
ATOM      4  C   UNL     1      -0.833   0.599  -1.986  1.00  0.00     0.316 A 
ATOM      5  O   UNL     1      -0.085  -0.364  -1.507  1.00  0.00    -0.402 OA
ENDROOT
BRANCH   1   6
ATOM      6  C   UNL     1       2.087  -1.329  -2.161  1.00  0.00     0.128 A 
ATOM      7  C   UNL     1       6.379  -3.848  -2.791  1.00  0.00     0.001 A 
ATOM      8  C   UNL     1       6.320  -2.890  -3.808  1.00  0.00     0.002 A 
ATOM      9  C   UNL     1       5.344  -3.945  -1.855  1.00  0.00     0.010 A 
ATOM     10  C   UNL     1       5.227  -2.022  -3.895  1.00  0.00     0.029 A 
ATOM     11  C   UNL     1       4.243  -3.079  -1.935  1.00  0.00     0.000 A 
ATOM     12  C   UNL     1       4.187  -2.111  -2.962  1.00  0.00     0.071 A 
ATOM     13  C   UNL     1       3.190  -3.153  -1.016  1.00  0.00     0.013 A 
ATOM     14  N   UNL     1       3.120  -1.272  -3.046  1.00  0.00    -0.243 NA
ATOM     15  C   UNL     1       2.108  -2.277  -1.127  1.00  0.00     0.035 A 
ENDBRANCH   1   6
BRANCH   4  16
ATOM     16  N   UNL     1      -2.088   1.001  -1.432  1.00  0.00    -0.331 N 
ATOM     17  H   UNL     1      -2.567   1.835  -1.841  1.00  0.00     0.166 HD
BRANCH  16  18
ATOM     18  C   UNL     1      -2.609   0.412  -0.196  1.00  0.00     0.121 C 
ATOM     19  C   UNL     1      -2.102   1.237   1.003  1.00  0.00     0.071 C 
ATOM     20  C   UNL     1      -4.126   0.346  -0.229  1.00  0.00     0.017 A 
ATOM     21  C   UNL     1      -2.804   0.799   2.288  1.00  0.00     0.232 C 
ATOM     22  C   UNL     1      -4.804  -0.047  -1.397  1.00  0.00     0.010 A 
ATOM     23  C   UNL     1      -4.867   0.589   0.947  1.00  0.00     0.124 A 
ATOM     24  O   UNL     1      -4.216   0.921   2.140  1.00  0.00    -0.493 OA
ATOM     25  C   UNL     1      -6.199  -0.132  -1.408  1.00  0.00     0.001 A 
ATOM     26  C   UNL     1      -6.264   0.512   0.925  1.00  0.00     0.047 A 
ATOM     27  C   UNL     1      -6.928   0.154  -0.251  1.00  0.00     0.004 A 
ENDBRANCH  16  18
ENDBRANCH   4  16
TORSDOF 3
