REMARK SMILES O=C1CC[C@@H](NC(=O)c2cccnc2F)[C@H](c2ccccc2)N1
REMARK SMILES IDX 8 1 7 2 6 3 9 5 10 6 14 7 11 8 13 9 12 10 15 11 5 12 4 13
REMARK SMILES IDX 16 14 3 15 23 16 2 17 1 18 17 20 18 21 22 22 19 23 21 24
REMARK SMILES IDX 20 25
REMARK H PARENT 6 4 23 19
ROOT
ATOM      1  O   UNL     1       0.136  -2.455  -0.622  1.00  0.00    -0.269 OA
ATOM      2  C   UNL     1      -0.341  -2.056   0.476  1.00  0.00     0.256 C 
ATOM      3  N   UNL     1       0.211  -0.896   1.120  1.00  0.00    -0.347 N 
ATOM      4  H   UNL     1      -0.301  -0.486   1.934  1.00  0.00     0.164 HD
ENDROOT
BRANCH   2   5
ATOM      5  C   UNL     1      -1.501  -2.766   1.056  1.00  0.00     0.094 A 
ATOM      6  C   UNL     1      -2.481  -3.308   0.210  1.00  0.00     0.020 A 
ATOM      7  C   UNL     1      -1.651  -2.928   2.447  1.00  0.00     0.225 A 
ATOM      8  C   UNL     1      -3.585  -3.970   0.749  1.00  0.00     0.021 A 
ATOM      9  N   UNL     1      -2.736  -3.583   2.943  1.00  0.00    -0.228 NA
ATOM     10  C   UNL     1      -3.699  -4.095   2.133  1.00  0.00     0.114 A 
ATOM     11  F   UNL     1      -0.703  -2.484   3.309  1.00  0.00    -0.184 F 
ENDBRANCH   2   5
BRANCH   3  12
ATOM     12  C   UNL     1       1.278  -0.090   0.517  1.00  0.00     0.109 C 
ATOM     13  C   UNL     1       2.253   0.372   1.609  1.00  0.00     0.037 C 
ATOM     14  C   UNL     1       0.671   1.138  -0.203  1.00  0.00     0.134 C 
ATOM     15  C   UNL     1       3.432   1.132   1.000  1.00  0.00     0.102 C 
ATOM     16  N   UNL     1       1.714   2.077  -0.633  1.00  0.00    -0.347 N 
ATOM     17  C   UNL     1       2.966   2.201   0.055  1.00  0.00     0.220 C 
ATOM     18  O   UNL     1       3.717   3.182  -0.190  1.00  0.00    -0.275 OA
ATOM     19  H   UNL     1       1.452   2.832  -1.308  1.00  0.00     0.164 HD
BRANCH  14  20
ATOM     20  C   UNL     1      -0.162   0.700  -1.390  1.00  0.00    -0.024 A 
ATOM     21  C   UNL     1      -1.564   0.658  -1.291  1.00  0.00     0.006 A 
ATOM     22  C   UNL     1       0.454   0.254  -2.574  1.00  0.00     0.006 A 
ATOM     23  C   UNL     1      -2.334   0.194  -2.361  1.00  0.00     0.000 A 
ATOM     24  C   UNL     1      -0.321  -0.206  -3.642  1.00  0.00     0.000 A 
ATOM     25  C   UNL     1      -1.713  -0.236  -3.537  1.00  0.00     0.000 A 
ENDBRANCH  14  20
ENDBRANCH   3  12
TORSDOF 3
