REMARK SMILES CO[C@@]1(c2nnc3n2CCN(C(=O)OC(C)(C)C)C3)CCOC1
REMARK SMILES IDX 4 1 5 2 6 3 7 4 19 5 11 6 10 7 9 8 8 9 3 10 20 11 23 12
REMARK SMILES IDX 21 13 22 14 2 15 1 16 12 17 13 18 14 19 15 20 16 21 17 22
REMARK SMILES IDX 18 23
REMARK H PARENT
ROOT
ATOM      1  C   UNL     1      -2.470   0.172  -0.993  1.00  0.00     0.167 A 
ATOM      2  N   UNL     1      -2.858  -1.113  -1.150  1.00  0.00    -0.132 NA
ATOM      3  N   UNL     1      -1.849  -1.882  -0.761  1.00  0.00    -0.133 NA
ATOM      4  C   UNL     1      -0.860  -1.053  -0.379  1.00  0.00     0.152 A 
ATOM      5  C   UNL     1       0.472  -1.485   0.145  1.00  0.00     0.200 C 
ATOM      6  N   UNL     1       1.301  -0.322   0.513  1.00  0.00    -0.299 N 
ATOM      7  C   UNL     1       1.096   0.975  -0.163  1.00  0.00     0.145 C 
ATOM      8  C   UNL     1      -0.384   1.373  -0.141  1.00  0.00     0.147 C 
ATOM      9  N   UNL     1      -1.205   0.232  -0.529  1.00  0.00    -0.309 N 
ENDROOT
BRANCH   1  10
ATOM     10  C   UNL     1      -3.338   1.379  -1.343  1.00  0.00     0.153 C 
ATOM     11  C   UNL     1      -3.568   2.228  -0.113  1.00  0.00     0.075 C 
ATOM     12  C   UNL     1      -4.788   1.021  -1.695  1.00  0.00     0.204 C 
ATOM     13  C   UNL     1      -4.932   2.847  -0.359  1.00  0.00     0.164 C 
ATOM     14  O   UNL     1      -5.620   2.096  -1.332  1.00  0.00    -0.378 OA
BRANCH  10  15
ATOM     15  O   UNL     1      -2.765   2.210  -2.351  1.00  0.00    -0.368 OA
ATOM     16  C   UNL     1      -2.272   1.484  -3.462  1.00  0.00     0.196 C 
ENDBRANCH  10  15
ENDBRANCH   1  10
BRANCH   6  17
ATOM     17  C   UNL     1       2.480  -0.546   1.312  1.00  0.00     0.410 C 
ATOM     18  O   UNL     1       3.261   0.410   1.569  1.00  0.00    -0.224 OA
BRANCH  17  19
ATOM     19  O   UNL     1       2.748  -1.836   1.800  1.00  0.00    -0.444 OA
BRANCH  19  20
ATOM     20  C   UNL     1       3.868  -2.227   2.607  1.00  0.00     0.106 C 
ATOM     21  C   UNL     1       5.190  -1.988   1.854  1.00  0.00     0.056 C 
ATOM     22  C   UNL     1       3.860  -1.470   3.949  1.00  0.00     0.056 C 
ATOM     23  C   UNL     1       3.722  -3.731   2.886  1.00  0.00     0.056 C 
ENDBRANCH  19  20
ENDBRANCH  17  19
ENDBRANCH   6  17
TORSDOF 5
