REMARK SMILES COc1ccnc(N(C)C(=O)c2ccc(Oc3ccc(C(F)(F)F)cn3)cc2)n1
REMARK SMILES IDX 12 1 13 2 14 3 15 4 27 5 28 6 10 7 11 8 8 9 9 10 7 11 3 12
REMARK SMILES IDX 4 13 29 14 5 15 6 16 2 17 1 18 16 19 17 20 18 21 26 22 19 23
REMARK SMILES IDX 25 24 20 25 21 26 22 27 23 28 24 29
REMARK H PARENT
ROOT
ATOM      1  C   UNL     1       0.919   0.106   0.071  1.00  0.00     0.040 A 
ATOM      2  C   UNL     1       1.811  -0.745  -0.604  1.00  0.00     0.018 A 
ATOM      3  C   UNL     1       1.500  -2.094  -0.793  1.00  0.00     0.048 A 
ATOM      4  C   UNL     1       0.286  -2.616  -0.312  1.00  0.00     0.129 A 
ATOM      5  C   UNL     1      -0.587  -1.779   0.390  1.00  0.00     0.048 A 
ATOM      6  C   UNL     1      -0.278  -0.429   0.579  1.00  0.00     0.018 A 
ENDROOT
BRANCH   1   7
ATOM      7  C   UNL     1       1.253   1.537   0.269  1.00  0.00     0.260 C 
ATOM      8  O   UNL     1       2.459   1.905   0.223  1.00  0.00    -0.269 OA
BRANCH   7   9
ATOM      9  N   UNL     1       0.231   2.515   0.537  1.00  0.00    -0.280 N 
ATOM     10  C   UNL     1       0.481   3.539   1.555  1.00  0.00     0.157 C 
BRANCH   9  11
ATOM     11  C   UNL     1      -0.919   2.633  -0.327  1.00  0.00     0.235 A 
ATOM     12  C   UNL     1      -3.024   3.620  -0.810  1.00  0.00     0.217 A 
ATOM     13  C   UNL     1      -3.114   2.872  -1.983  1.00  0.00     0.088 A 
ATOM     14  N   UNL     1      -1.931   3.487  -0.010  1.00  0.00    -0.177 NA
ATOM     15  C   UNL     1      -2.070   2.005  -2.301  1.00  0.00     0.121 A 
ATOM     16  N   UNL     1      -0.997   1.904  -1.475  1.00  0.00    -0.221 NA
BRANCH  12  17
ATOM     17  O   UNL     1      -4.058   4.498  -0.472  1.00  0.00    -0.481 OA
ATOM     18  C   UNL     1      -4.035   5.294   0.707  1.00  0.00     0.280 C 
ENDBRANCH  12  17
ENDBRANCH   9  11
ENDBRANCH   7   9
ENDBRANCH   1   7
BRANCH   4  19
ATOM     19  O   UNL     1      -0.063  -3.966  -0.471  1.00  0.00    -0.439 OA
BRANCH  19  20
ATOM     20  C   UNL     1       0.298  -4.771  -1.559  1.00  0.00     0.219 A 
ATOM     21  C   UNL     1       0.181  -6.158  -1.449  1.00  0.00     0.069 A 
ATOM     22  N   UNL     1       0.717  -4.223  -2.734  1.00  0.00    -0.221 NA
ATOM     23  C   UNL     1       0.520  -6.966  -2.536  1.00  0.00     0.020 A 
ATOM     24  C   UNL     1       1.056  -4.988  -3.806  1.00  0.00     0.128 A 
ATOM     25  C   UNL     1       0.987  -6.388  -3.727  1.00  0.00     0.074 A 
BRANCH  25  26
ATOM     26  C   UNL     1       1.308  -7.244  -4.925  1.00  0.00     0.417 C 
ATOM     27  F   UNL     1       2.280  -6.644  -5.707  1.00  0.00    -0.166 F 
ATOM     28  F   UNL     1       1.777  -8.484  -4.527  1.00  0.00    -0.166 F 
ATOM     29  F   UNL     1       0.164  -7.416  -5.681  1.00  0.00    -0.166 F 
ENDBRANCH  25  26
ENDBRANCH  19  20
ENDBRANCH   4  19
TORSDOF 7
