REMARK SMILES CO[C@]1(c2nnc3n2CCN(C(=O)OC(C)(C)C)C3)CCOC1
REMARK SMILES IDX 4 1 5 2 6 3 7 4 19 5 11 6 10 7 9 8 8 9 3 10 20 11 23 12
REMARK SMILES IDX 21 13 22 14 2 15 1 16 12 17 13 18 14 19 15 20 16 21 17 22
REMARK SMILES IDX 18 23
REMARK H PARENT
ROOT
ATOM      1  C   UNL     1       0.246  -0.170   2.410  1.00  0.00     0.167 A 
ATOM      2  N   UNL     1       1.554  -0.511   2.458  1.00  0.00    -0.132 NA
ATOM      3  N   UNL     1       1.967  -0.688   1.210  1.00  0.00    -0.133 NA
ATOM      4  C   UNL     1       0.902  -0.464   0.419  1.00  0.00     0.152 A 
ATOM      5  C   UNL     1       0.908  -0.543  -1.075  1.00  0.00     0.200 C 
ATOM      6  N   UNL     1      -0.415  -0.204  -1.630  1.00  0.00    -0.299 N 
ATOM      7  C   UNL     1      -1.633  -0.435  -0.828  1.00  0.00     0.145 C 
ATOM      8  C   UNL     1      -1.492   0.182   0.569  1.00  0.00     0.147 C 
ATOM      9  N   UNL     1      -0.191  -0.164   1.132  1.00  0.00    -0.309 N 
ENDROOT
BRANCH   1  10
ATOM     10  C   UNL     1      -0.625   0.088   3.629  1.00  0.00     0.153 C 
ATOM     11  C   UNL     1       0.194   0.181   4.915  1.00  0.00     0.075 C 
ATOM     12  C   UNL     1      -1.237   1.492   3.550  1.00  0.00     0.204 C 
ATOM     13  C   UNL     1      -0.408   1.370   5.657  1.00  0.00     0.164 C 
ATOM     14  O   UNL     1      -1.394   1.986   4.857  1.00  0.00    -0.378 OA
BRANCH  10  15
ATOM     15  O   UNL     1      -1.592  -0.966   3.666  1.00  0.00    -0.368 OA
ATOM     16  C   UNL     1      -2.582  -0.839   4.671  1.00  0.00     0.196 C 
ENDBRANCH  10  15
ENDBRANCH   1  10
BRANCH   6  17
ATOM     17  C   UNL     1      -0.516   0.071  -3.041  1.00  0.00     0.410 C 
ATOM     18  O   UNL     1      -1.645   0.263  -3.569  1.00  0.00    -0.224 OA
BRANCH  17  19
ATOM     19  O   UNL     1       0.652   0.124  -3.820  1.00  0.00    -0.444 OA
BRANCH  19  20
ATOM     20  C   UNL     1       0.727   0.383  -5.230  1.00  0.00     0.106 C 
ATOM     21  C   UNL     1      -0.031  -0.700  -6.022  1.00  0.00     0.056 C 
ATOM     22  C   UNL     1       2.212   0.335  -5.621  1.00  0.00     0.056 C 
ATOM     23  C   UNL     1       0.172   1.783  -5.554  1.00  0.00     0.056 C 
ENDBRANCH  19  20
ENDBRANCH  17  19
ENDBRANCH   6  17
TORSDOF 5
