REMARK SMILES COc1cc(OC)cc(S(=O)(=O)Nc2cc(S(=O)(=O)NC(C)(C)C)ccc2OC)c1
REMARK SMILES IDX 14 1 15 2 16 3 25 4 26 5 27 6 13 7 10 9 11 10 12 11 9 12
REMARK SMILES IDX 3 13 4 14 30 15 5 16 8 17 2 18 1 19 6 20 7 21 28 22 29 23
REMARK SMILES IDX 17 24 18 25 19 26 20 27 21 29 22 30 23 31 24 32
REMARK H PARENT 13 8 20 28
ROOT
ATOM      1  C   UNL     1       1.839   2.054  -0.902  1.00  0.00     0.092 A 
ATOM      2  C   UNL     1       1.995   0.796  -1.499  1.00  0.00     0.052 A 
ATOM      3  C   UNL     1       2.822  -0.169  -0.912  1.00  0.00     0.084 A 
ATOM      4  C   UNL     1       3.525   0.140   0.257  1.00  0.00     0.026 A 
ATOM      5  C   UNL     1       3.381   1.394   0.855  1.00  0.00     0.050 A 
ATOM      6  C   UNL     1       2.534   2.363   0.283  1.00  0.00     0.143 A 
ENDROOT
BRANCH   1   7
ATOM      7  N   UNL     1       0.954   3.006  -1.502  1.00  0.00    -0.276 N 
ATOM      8  H   UNL     1       0.973   3.114  -2.542  1.00  0.00     0.180 HD
BRANCH   7   9
ATOM      9  S   UNL     1      -0.512   3.453  -0.697  1.00  0.00     0.262 S 
ATOM     10  O   UNL     1      -1.501   3.964  -1.707  1.00  0.00    -0.201 OA
ATOM     11  O   UNL     1      -0.241   4.545   0.300  1.00  0.00    -0.201 OA
BRANCH   9  12
ATOM     12  C   UNL     1      -1.189   2.035   0.099  1.00  0.00     0.095 A 
ATOM     13  C   UNL     1      -2.375  -0.087  -0.046  1.00  0.00     0.123 A 
ATOM     14  C   UNL     1      -2.236  -0.248   1.337  1.00  0.00     0.092 A 
ATOM     15  C   UNL     1      -1.844   1.060  -0.663  1.00  0.00     0.069 A 
ATOM     16  C   UNL     1      -1.557   0.716   2.107  1.00  0.00     0.123 A 
ATOM     17  C   UNL     1      -1.036   1.853   1.478  1.00  0.00     0.069 A 
BRANCH  13  18
ATOM     18  O   UNL     1      -3.047  -1.086  -0.768  1.00  0.00    -0.497 OA
ATOM     19  C   UNL     1      -3.229  -1.074  -2.181  1.00  0.00     0.278 C 
ENDBRANCH  13  18
BRANCH  16  20
ATOM     20  O   UNL     1      -1.381   0.583   3.492  1.00  0.00    -0.497 OA
ATOM     21  C   UNL     1      -1.827  -0.532   4.257  1.00  0.00     0.278 C 
ENDBRANCH  16  20
ENDBRANCH   9  12
ENDBRANCH   7   9
ENDBRANCH   1   7
BRANCH   6  22
ATOM     22  O   UNL     1       2.373   3.637   0.851  1.00  0.00    -0.495 OA
ATOM     23  C   UNL     1       3.016   4.074   2.044  1.00  0.00     0.278 C 
ENDBRANCH   6  22
BRANCH   3  24
ATOM     24  S   UNL     1       2.965  -1.777  -1.614  1.00  0.00     0.241 S 
ATOM     25  O   UNL     1       2.165  -1.870  -2.884  1.00  0.00    -0.207 OA
ATOM     26  O   UNL     1       4.410  -1.996  -1.966  1.00  0.00    -0.207 OA
BRANCH  24  27
ATOM     27  N   UNL     1       2.470  -3.035  -0.503  1.00  0.00    -0.206 NA
ATOM     28  H   UNL     1       3.158  -3.048   0.285  1.00  0.00     0.141 HD
BRANCH  27  29
ATOM     29  C   UNL     1       1.088  -2.970   0.037  1.00  0.00     0.025 C 
ATOM     30  C   UNL     1       0.036  -2.784  -1.078  1.00  0.00     0.028 C 
ATOM     31  C   UNL     1       0.812  -4.324   0.725  1.00  0.00     0.028 C 
ATOM     32  C   UNL     1       0.934  -1.856   1.098  1.00  0.00     0.028 C 
ENDBRANCH  27  29
ENDBRANCH  24  27
ENDBRANCH   3  24
TORSDOF 9
