REMARK SMILES c1ccc(Nc2nc(OCC3CCCCC3)c3[nH]cnc3n2)cc1
REMARK SMILES IDX 6 1 7 2 8 3 17 4 18 5 19 6 20 7 21 8 22 9 5 11 4 13 1 14
REMARK SMILES IDX 2 15 24 16 3 17 23 18 9 19 10 20 11 21 12 22 16 23 13 24
REMARK SMILES IDX 15 25 14 26
REMARK H PARENT 18 10 5 12
ROOT
ATOM      1  C   UNL     1      -1.884   0.627   2.415  1.00  0.00     0.232 A 
ATOM      2  N   UNL     1      -0.932  -0.115   1.758  1.00  0.00    -0.175 NA
ATOM      3  C   UNL     1      -0.752  -1.446   2.016  1.00  0.00     0.245 A 
ATOM      4  C   UNL     1      -1.567  -2.022   2.979  1.00  0.00     0.148 A 
ATOM      5  N   UNL     1      -1.610  -3.279   3.430  1.00  0.00    -0.339 N 
ATOM      6  C   UNL     1      -2.594  -3.249   4.365  1.00  0.00     0.199 A 
ATOM      7  N   UNL     1      -3.168  -2.023   4.518  1.00  0.00    -0.217 NA
ATOM      8  C   UNL     1      -2.492  -1.280   3.626  1.00  0.00     0.186 A 
ATOM      9  N   UNL     1      -2.670   0.039   3.370  1.00  0.00    -0.191 NA
ATOM     10  H   UNL     1      -1.027  -4.094   3.137  1.00  0.00     0.168 HD
ENDROOT
BRANCH   1  11
ATOM     11  N   UNL     1      -2.028   2.028   2.145  1.00  0.00    -0.324 N 
ATOM     12  H   UNL     1      -2.530   2.611   2.852  1.00  0.00     0.170 HD
BRANCH  11  13
ATOM     13  C   UNL     1      -1.404   2.691   1.033  1.00  0.00     0.041 A 
ATOM     14  C   UNL     1      -0.194   4.024  -1.122  1.00  0.00     0.000 A 
ATOM     15  C   UNL     1      -0.725   2.745  -1.303  1.00  0.00     0.002 A 
ATOM     16  C   UNL     1      -0.283   4.648   0.126  1.00  0.00     0.002 A 
ATOM     17  C   UNL     1      -1.337   2.083  -0.234  1.00  0.00     0.026 A 
ATOM     18  C   UNL     1      -0.892   3.987   1.198  1.00  0.00     0.026 A 
ENDBRANCH  11  13
ENDBRANCH   1  11
BRANCH   3  19
ATOM     19  O   UNL     1       0.216  -2.200   1.345  1.00  0.00    -0.476 OA
BRANCH  19  20
ATOM     20  C   UNL     1       1.027  -1.673   0.295  1.00  0.00     0.235 C 
BRANCH  20  21
ATOM     21  C   UNL     1       0.226  -1.575  -1.022  1.00  0.00     0.027 C 
ATOM     22  C   UNL     1       0.994  -0.789  -2.105  1.00  0.00     0.007 C 
ATOM     23  C   UNL     1      -0.213  -2.959  -1.550  1.00  0.00     0.007 C 
ATOM     24  C   UNL     1       2.157  -1.598  -2.697  1.00  0.00     0.000 C 
ATOM     25  C   UNL     1       0.950  -3.754  -2.162  1.00  0.00     0.000 C 
ATOM     26  C   UNL     1       1.669  -2.942  -3.245  1.00  0.00     0.000 C 
ENDBRANCH  20  21
ENDBRANCH  19  20
ENDBRANCH   3  19
TORSDOF 5
