REMARK SMILES O=C(Nc1ccc(OC(F)F)cc1)c1ccc(Nc2ncccn2)cc1
REMARK SMILES IDX 4 1 5 2 6 3 7 4 12 5 13 6 3 7 1 8 2 9 14 11 15 12 26 13
REMARK SMILES IDX 16 14 25 15 17 16 18 17 19 19 20 20 24 21 21 22 23 23 22 24
REMARK SMILES IDX 8 25 9 26 10 27 11 28
REMARK H PARENT 3 10 18 18
ROOT
ATOM      1  C   UNL     1       0.172  -2.055  -2.307  1.00  0.00     0.041 A 
ATOM      2  C   UNL     1       0.085  -1.691  -3.662  1.00  0.00     0.030 A 
ATOM      3  C   UNL     1       0.517  -2.571  -4.659  1.00  0.00     0.049 A 
ATOM      4  C   UNL     1       1.052  -3.820  -4.324  1.00  0.00     0.126 A 
ATOM      5  C   UNL     1       1.159  -4.178  -2.967  1.00  0.00     0.049 A 
ATOM      6  C   UNL     1       0.729  -3.298  -1.970  1.00  0.00     0.030 A 
ENDROOT
BRANCH   1   7
ATOM      7  N   UNL     1      -0.242  -1.159  -1.260  1.00  0.00    -0.322 N 
ATOM      8  O   UNL     1      -2.196  -0.389  -2.282  1.00  0.00    -0.269 OA
ATOM      9  C   UNL     1      -1.312  -0.209  -1.401  1.00  0.00     0.255 C 
ATOM     10  H   UNL     1       0.181  -1.285  -0.314  1.00  0.00     0.170 HD
BRANCH   9  11
ATOM     11  C   UNL     1      -1.419   0.955  -0.487  1.00  0.00     0.040 A 
ATOM     12  C   UNL     1      -2.639   1.642  -0.355  1.00  0.00     0.016 A 
ATOM     13  C   UNL     1      -0.302   1.412   0.235  1.00  0.00     0.016 A 
ATOM     14  C   UNL     1      -2.745   2.743   0.500  1.00  0.00     0.027 A 
ATOM     15  C   UNL     1      -0.410   2.513   1.089  1.00  0.00     0.027 A 
ATOM     16  C   UNL     1      -1.640   3.174   1.246  1.00  0.00     0.041 A 
BRANCH  16  17
ATOM     17  N   UNL     1      -1.770   4.324   2.099  1.00  0.00    -0.324 N 
ATOM     18  H   UNL     1      -2.466   5.058   1.834  1.00  0.00     0.170 HD
BRANCH  17  19
ATOM     19  C   UNL     1      -1.088   4.481   3.351  1.00  0.00     0.227 A 
ATOM     20  N   UNL     1      -1.102   5.689   3.976  1.00  0.00    -0.221 NA
ATOM     21  N   UNL     1      -0.470   3.424   3.947  1.00  0.00    -0.221 NA
ATOM     22  C   UNL     1      -0.491   5.866   5.176  1.00  0.00     0.117 A 
ATOM     23  C   UNL     1       0.153   3.560   5.147  1.00  0.00     0.117 A 
ATOM     24  C   UNL     1       0.157   4.796   5.791  1.00  0.00     0.040 A 
ENDBRANCH  17  19
ENDBRANCH  16  17
ENDBRANCH   9  11
ENDBRANCH   1   7
BRANCH   4  25
ATOM     25  O   UNL     1       1.468  -4.665  -5.364  1.00  0.00    -0.435 OA
BRANCH  25  26
ATOM     26  C   UNL     1       2.007  -5.972  -5.182  1.00  0.00     0.542 C 
ATOM     27  F   UNL     1       1.049  -6.805  -4.631  1.00  0.00    -0.167 F 
ATOM     28  F   UNL     1       2.389  -6.478  -6.409  1.00  0.00    -0.167 F 
ENDBRANCH  25  26
ENDBRANCH   4  25
TORSDOF 6
