REMARK SMILES O=C(Nc1cccc(OC(F)F)c1)c1ccc(Nc2ncccn2)cc1
REMARK SMILES IDX 4 1 5 2 6 3 7 4 8 5 13 6 3 7 1 8 2 9 14 11 15 12 26 13 16 14
REMARK SMILES IDX 25 15 17 16 18 17 19 19 20 20 24 21 21 22 23 23 22 24 9 25
REMARK SMILES IDX 10 26 11 27 12 28
REMARK H PARENT 3 10 18 18
ROOT
ATOM      1  C   UNL     1       0.897  -1.908  -2.768  1.00  0.00     0.045 A 
ATOM      2  C   UNL     1       1.576  -3.134  -2.719  1.00  0.00     0.026 A 
ATOM      3  C   UNL     1       2.177  -3.655  -3.867  1.00  0.00     0.006 A 
ATOM      4  C   UNL     1       2.116  -2.951  -5.071  1.00  0.00     0.047 A 
ATOM      5  C   UNL     1       1.462  -1.716  -5.140  1.00  0.00     0.128 A 
ATOM      6  C   UNL     1       0.858  -1.192  -3.979  1.00  0.00     0.072 A 
ENDROOT
BRANCH   1   7
ATOM      7  N   UNL     1       0.303  -1.382  -1.568  1.00  0.00    -0.322 N 
ATOM      8  O   UNL     1      -1.667  -0.585  -2.535  1.00  0.00    -0.269 OA
ATOM      9  C   UNL     1      -0.872  -0.554  -1.556  1.00  0.00     0.255 C 
ATOM     10  H   UNL     1       0.678  -1.715  -0.651  1.00  0.00     0.170 HD
BRANCH   9  11
ATOM     11  C   UNL     1      -1.189   0.299  -0.385  1.00  0.00     0.040 A 
ATOM     12  C   UNL     1      -0.191   0.661   0.537  1.00  0.00     0.016 A 
ATOM     13  C   UNL     1      -2.495   0.785  -0.196  1.00  0.00     0.016 A 
ATOM     14  C   UNL     1      -0.498   1.470   1.635  1.00  0.00     0.027 A 
ATOM     15  C   UNL     1      -2.800   1.594   0.902  1.00  0.00     0.027 A 
ATOM     16  C   UNL     1      -1.811   1.925   1.838  1.00  0.00     0.041 A 
BRANCH  16  17
ATOM     17  N   UNL     1      -2.146   2.778   2.946  1.00  0.00    -0.324 N 
ATOM     18  H   UNL     1      -2.914   3.476   2.816  1.00  0.00     0.170 HD
BRANCH  17  19
ATOM     19  C   UNL     1      -1.571   2.663   4.256  1.00  0.00     0.227 A 
ATOM     20  N   UNL     1      -0.860   1.558   4.612  1.00  0.00    -0.221 NA
ATOM     21  N   UNL     1      -1.785   3.647   5.171  1.00  0.00    -0.221 NA
ATOM     22  C   UNL     1      -0.338   1.431   5.859  1.00  0.00     0.117 A 
ATOM     23  C   UNL     1      -1.280   3.557   6.429  1.00  0.00     0.117 A 
ATOM     24  C   UNL     1      -0.538   2.438   6.802  1.00  0.00     0.040 A 
ENDBRANCH  17  19
ENDBRANCH  16  17
ENDBRANCH   9  11
ENDBRANCH   1   7
BRANCH   5  25
ATOM     25  O   UNL     1       1.443  -1.043  -6.372  1.00  0.00    -0.435 OA
BRANCH  25  26
ATOM     26  C   UNL     1       0.794   0.203  -6.607  1.00  0.00     0.542 C 
ATOM     27  F   UNL     1       1.044   0.605  -7.905  1.00  0.00    -0.167 F 
ATOM     28  F   UNL     1      -0.571   0.066  -6.434  1.00  0.00    -0.167 F 
ENDBRANCH  25  26
ENDBRANCH   5  25
TORSDOF 6
