REMARK SMILES Cc1c[nH]c2ncc(C(=O)N[C@H]3[C@@H]4CN(C(=O)c5ccc6nc(N)n(C)c6c5)C[C@@H]43)cc12
REMARK SMILES IDX 12 1 13 2 14 3 15 4 29 5 30 6 11 7 9 8 10 9 8 11 2 12 3 13
REMARK SMILES IDX 32 14 4 15 31 16 5 17 6 18 7 19 1 20 16 22 17 23 18 24 19 25
REMARK SMILES IDX 28 26 20 27 27 28 21 29 25 30 22 31 23 32 26 33 24 34
REMARK H PARENT 11 10 4 21 24 35 24 36
ROOT
ATOM      1  C   UNL     1      -0.222   0.154   1.420  1.00  0.00     0.093 C 
ATOM      2  C   UNL     1       0.275  -0.445   2.728  1.00  0.00     0.038 C 
ATOM      3  C   UNL     1       1.785  -0.552   2.882  1.00  0.00     0.126 C 
ATOM      4  N   UNL     1       2.237  -1.447   1.830  1.00  0.00    -0.338 N 
ATOM      5  C   UNL     1       1.146  -1.997   1.039  1.00  0.00     0.126 C 
ATOM      6  C   UNL     1      -0.128  -1.359   1.576  1.00  0.00     0.038 C 
ENDROOT
BRANCH   1   7
ATOM      7  N   UNL     1      -1.584   0.676   1.512  1.00  0.00    -0.349 N 
ATOM      8  C   UNL     1      -1.819   2.087   1.639  1.00  0.00     0.253 C 
ATOM      9  O   UNL     1      -0.836   2.866   1.788  1.00  0.00    -0.269 OA
ATOM     10  H   UNL     1      -2.384   0.007   1.554  1.00  0.00     0.164 HD
BRANCH   8  11
ATOM     11  C   UNL     1      -3.191   2.651   1.615  1.00  0.00     0.058 A 
ATOM     12  C   UNL     1      -6.766   2.119   0.623  1.00  0.00    -0.024 A 
ATOM     13  C   UNL     1      -7.635   3.180   0.867  1.00  0.00     0.088 A 
ATOM     14  C   UNL     1      -5.532   2.534   1.079  1.00  0.00     0.022 A 
ATOM     15  N   UNL     1      -6.978   4.201   1.465  1.00  0.00    -0.346 N 
ATOM     16  C   UNL     1      -4.278   1.929   1.064  1.00  0.00     0.027 A 
ATOM     17  C   UNL     1      -5.705   3.788   1.585  1.00  0.00     0.137 A 
ATOM     18  N   UNL     1      -4.680   4.506   2.101  1.00  0.00    -0.238 NA
ATOM     19  C   UNL     1      -3.429   3.958   2.126  1.00  0.00     0.127 A 
ATOM     20  C   UNL     1      -7.091   0.837  -0.073  1.00  0.00     0.047 C 
ATOM     21  H   UNL     1      -7.376   5.122   1.758  1.00  0.00     0.167 HD
ENDBRANCH   8  11
ENDBRANCH   1   7
BRANCH   4  22
ATOM     22  C   UNL     1       3.593  -1.910   1.739  1.00  0.00     0.253 C 
ATOM     23  O   UNL     1       4.255  -2.095   2.796  1.00  0.00    -0.269 OA
BRANCH  22  24
ATOM     24  C   UNL     1       4.226  -2.177   0.431  1.00  0.00     0.042 A 
ATOM     25  C   UNL     1       5.192  -3.209   0.306  1.00  0.00     0.016 A 
ATOM     26  C   UNL     1       3.912  -1.375  -0.690  1.00  0.00     0.042 A 
ATOM     27  C   UNL     1       5.823  -3.459  -0.926  1.00  0.00     0.031 A 
ATOM     28  C   UNL     1       4.550  -1.658  -1.899  1.00  0.00     0.070 A 
ATOM     29  C   UNL     1       5.473  -2.660  -2.010  1.00  0.00     0.091 A 
ATOM     30  N   UNL     1       4.431  -1.044  -3.090  1.00  0.00    -0.314 N 
ATOM     31  N   UNL     1       5.981  -2.705  -3.255  1.00  0.00    -0.213 NA
ATOM     32  C   UNL     1       5.322  -1.695  -3.882  1.00  0.00     0.200 A 
ATOM     33  C   UNL     1       3.621   0.125  -3.427  1.00  0.00     0.153 C 
BRANCH  32  34
ATOM     34  N   UNL     1       5.586  -1.340  -5.241  1.00  0.00    -0.369 N 
ATOM     35  H   UNL     1       5.124  -0.519  -5.690  1.00  0.00     0.159 HD
ATOM     36  H   UNL     1       6.290  -1.878  -5.790  1.00  0.00     0.159 HD
ENDBRANCH  32  34
ENDBRANCH  22  24
ENDBRANCH   4  22
TORSDOF 5
