REMARK SMILES O=C(c1c[nH]nc1-c1ccc(Cl)s1)N1CCN(CC2CC2)CC1
REMARK SMILES IDX 1 1 2 2 14 3 15 4 16 5 17 6 22 7 23 8 3 9 4 10 7 11 5 12
REMARK SMILES IDX 6 13 8 15 9 16 13 17 10 18 11 19 12 20 18 21 19 22 20 23
REMARK SMILES IDX 21 24
REMARK H PARENT 5 14
ROOT
ATOM      1  O   UNL     1       1.243  -0.636  -2.024  1.00  0.00    -0.269 OA
ATOM      2  C   UNL     1       0.749   0.243  -1.267  1.00  0.00     0.257 C 
ATOM      3  N   UNL     1      -0.579   0.062  -0.733  1.00  0.00    -0.336 N 
ATOM      4  C   UNL     1      -1.010   0.758   0.487  1.00  0.00     0.135 C 
ATOM      5  C   UNL     1      -1.880  -0.169   1.337  1.00  0.00     0.106 C 
ATOM      6  N   UNL     1      -2.978  -0.713   0.517  1.00  0.00    -0.300 NA
ATOM      7  C   UNL     1      -2.451  -1.526  -0.595  1.00  0.00     0.106 C 
ATOM      8  C   UNL     1      -1.597  -0.652  -1.516  1.00  0.00     0.135 C 
ENDROOT
BRANCH   2   9
ATOM      9  C   UNL     1       1.534   1.460  -0.983  1.00  0.00     0.086 A 
ATOM     10  C   UNL     1       1.054   2.754  -1.006  1.00  0.00     0.119 A 
ATOM     11  C   UNL     1       2.905   1.595  -0.796  1.00  0.00     0.115 A 
ATOM     12  N   UNL     1       2.088   3.595  -0.840  1.00  0.00    -0.284 N 
ATOM     13  N   UNL     1       3.210   2.906  -0.712  1.00  0.00    -0.174 NA
ATOM     14  H   UNL     1       2.034   4.637  -0.825  1.00  0.00     0.189 HD
BRANCH  11  15
ATOM     15  C   UNL     1       3.912   0.531  -0.630  1.00  0.00     0.057 A 
ATOM     16  C   UNL     1       5.288   0.712  -0.733  1.00  0.00     0.024 A 
ATOM     17  S   UNL     1       3.617  -1.063  -0.163  1.00  0.00    -0.122 S 
ATOM     18  C   UNL     1       6.025  -0.447  -0.458  1.00  0.00     0.033 A 
ATOM     19  C   UNL     1       5.229  -1.532  -0.123  1.00  0.00     0.094 A 
ATOM     20  Cl  UNL     1       5.803  -3.131   0.296  1.00  0.00    -0.072 Cl
ENDBRANCH  11  15
ENDBRANCH   2   9
BRANCH   6  21
ATOM     21  C   UNL     1      -3.986  -1.439   1.320  1.00  0.00     0.088 C 
BRANCH  21  22
ATOM     22  C   UNL     1      -3.429  -2.702   2.011  1.00  0.00     0.003 C 
ATOM     23  C   UNL     1      -4.504  -3.663   2.501  1.00  0.00     0.005 C 
ATOM     24  C   UNL     1      -3.658  -4.024   1.292  1.00  0.00     0.005 C 
ENDBRANCH  21  22
ENDBRANCH   6  21
TORSDOF 4
