REMARK SMILES Cc1ccc(CC(C)(C)NC(=O)c2cc(-c3ccn(C)n3)on2)cc1
REMARK SMILES IDX 10 1 11 2 12 3 7 5 8 6 9 7 6 8 5 9 2 10 3 11 25 12 4 13
REMARK SMILES IDX 24 14 1 15 13 16 14 17 23 18 15 19 22 20 16 21 17 22 21 23
REMARK SMILES IDX 18 24 19 25 20 26
REMARK H PARENT 10 4
ROOT
ATOM      1  N   UNL     1       0.920   2.177   0.158  1.00  0.00    -0.345 N 
ATOM      2  C   UNL     1       1.518   2.201  -1.151  1.00  0.00     0.273 C 
ATOM      3  O   UNL     1       1.827   3.295  -1.694  1.00  0.00    -0.267 OA
ATOM      4  H   UNL     1       0.980   1.277   0.681  1.00  0.00     0.164 HD
ENDROOT
BRANCH   1   5
ATOM      5  C   UNL     1       0.284   3.332   0.823  1.00  0.00     0.039 C 
ATOM      6  C   UNL     1       1.375   4.335   1.247  1.00  0.00     0.035 C 
ATOM      7  C   UNL     1      -0.708   4.031  -0.134  1.00  0.00     0.035 C 
BRANCH   5   8
ATOM      8  C   UNL     1      -0.461   2.859   2.111  1.00  0.00     0.063 C 
BRANCH   8   9
ATOM      9  C   UNL     1      -1.569   1.858   1.854  1.00  0.00    -0.046 A 
ATOM     10  C   UNL     1      -3.633   0.001   1.369  1.00  0.00    -0.051 A 
ATOM     11  C   UNL     1      -2.339  -0.443   1.677  1.00  0.00     0.004 A 
ATOM     12  C   UNL     1      -3.888   1.378   1.296  1.00  0.00     0.004 A 
ATOM     13  C   UNL     1      -1.319   0.477   1.931  1.00  0.00     0.004 A 
ATOM     14  C   UNL     1      -2.868   2.299   1.548  1.00  0.00     0.004 A 
ATOM     15  C   UNL     1      -4.717  -0.987   1.056  1.00  0.00     0.044 C 
ENDBRANCH   8   9
ENDBRANCH   5   8
ENDBRANCH   1   5
BRANCH   2  16
ATOM     16  C   UNL     1       1.790   0.948  -1.874  1.00  0.00     0.171 A 
ATOM     17  C   UNL     1       1.387  -0.323  -1.508  1.00  0.00     0.090 A 
ATOM     18  N   UNL     1       2.463   0.889  -3.041  1.00  0.00    -0.074 NA
ATOM     19  C   UNL     1       1.870  -1.117  -2.526  1.00  0.00     0.187 A 
ATOM     20  O   UNL     1       2.494  -0.361  -3.399  1.00  0.00    -0.354 OA
BRANCH  19  21
ATOM     21  C   UNL     1       1.719  -2.571  -2.640  1.00  0.00     0.130 A 
ATOM     22  C   UNL     1       2.213  -3.357  -3.664  1.00  0.00     0.054 A 
ATOM     23  N   UNL     1       1.076  -3.337  -1.737  1.00  0.00    -0.170 NA
ATOM     24  C   UNL     1       1.830  -4.638  -3.327  1.00  0.00     0.109 A 
ATOM     25  N   UNL     1       1.140  -4.585  -2.172  1.00  0.00    -0.275 N 
ATOM     26  C   UNL     1       0.616  -5.729  -1.439  1.00  0.00     0.173 C 
ENDBRANCH  19  21
ENDBRANCH   2  16
TORSDOF 5
