REMARK SMILES COc1ccnc(N(C)C(=O)c2ccc(Oc3ccc(C(F)(F)F)cn3)cc2)n1
REMARK SMILES IDX 12 1 13 2 14 3 15 4 27 5 28 6 10 7 11 8 8 9 9 10 7 11 3 12
REMARK SMILES IDX 4 13 29 14 5 15 6 16 2 17 1 18 16 19 17 20 18 21 26 22 19 23
REMARK SMILES IDX 25 24 20 25 21 26 22 27 23 28 24 29
REMARK H PARENT
ROOT
ATOM      1  C   UNL     1       1.222   2.493   0.637  1.00  0.00     0.040 A 
ATOM      2  C   UNL     1       2.476   1.865   0.566  1.00  0.00     0.018 A 
ATOM      3  C   UNL     1       2.599   0.499   0.836  1.00  0.00     0.048 A 
ATOM      4  C   UNL     1       1.476  -0.261   1.179  1.00  0.00     0.129 A 
ATOM      5  C   UNL     1       0.228   0.375   1.303  1.00  0.00     0.048 A 
ATOM      6  C   UNL     1       0.103   1.741   1.033  1.00  0.00     0.018 A 
ENDROOT
BRANCH   1   7
ATOM      7  C   UNL     1       1.085   3.928   0.290  1.00  0.00     0.260 C 
ATOM      8  O   UNL     1       2.069   4.699   0.461  1.00  0.00    -0.269 OA
BRANCH   7   9
ATOM      9  N   UNL     1      -0.147   4.461  -0.236  1.00  0.00    -0.280 N 
ATOM     10  C   UNL     1      -0.554   5.812   0.159  1.00  0.00     0.157 C 
BRANCH   9  11
ATOM     11  C   UNL     1      -0.840   3.796  -1.316  1.00  0.00     0.235 A 
ATOM     12  C   UNL     1      -0.973   1.998  -2.863  1.00  0.00     0.217 A 
ATOM     13  C   UNL     1      -2.155   2.524  -3.384  1.00  0.00     0.088 A 
ATOM     14  N   UNL     1      -0.340   2.647  -1.850  1.00  0.00    -0.177 NA
ATOM     15  C   UNL     1      -2.652   3.708  -2.841  1.00  0.00     0.121 A 
ATOM     16  N   UNL     1      -1.992   4.317  -1.822  1.00  0.00    -0.221 NA
BRANCH  12  17
ATOM     17  O   UNL     1      -0.456   0.808  -3.383  1.00  0.00    -0.481 OA
ATOM     18  C   UNL     1       0.723   0.198  -2.871  1.00  0.00     0.280 C 
ENDBRANCH  12  17
ENDBRANCH   9  11
ENDBRANCH   7   9
ENDBRANCH   1   7
BRANCH   4  19
ATOM     19  O   UNL     1       1.644  -1.632   1.426  1.00  0.00    -0.439 OA
BRANCH  19  20
ATOM     20  C   UNL     1       0.685  -2.620   1.172  1.00  0.00     0.219 A 
ATOM     21  C   UNL     1       0.844  -3.885   1.740  1.00  0.00     0.069 A 
ATOM     22  N   UNL     1      -0.373  -2.382   0.346  1.00  0.00    -0.221 NA
ATOM     23  C   UNL     1      -0.093  -4.884   1.470  1.00  0.00     0.020 A 
ATOM     24  C   UNL     1      -1.301  -3.336   0.070  1.00  0.00     0.128 A 
ATOM     25  C   UNL     1      -1.193  -4.615   0.641  1.00  0.00     0.074 A 
BRANCH  25  26
ATOM     26  C   UNL     1      -2.179  -5.709   0.318  1.00  0.00     0.417 C 
ATOM     27  F   UNL     1      -1.611  -6.580  -0.592  1.00  0.00    -0.166 F 
ATOM     28  F   UNL     1      -2.504  -6.407   1.468  1.00  0.00    -0.166 F 
ATOM     29  F   UNL     1      -3.344  -5.193  -0.221  1.00  0.00    -0.166 F 
ENDBRANCH  25  26
ENDBRANCH  19  20
ENDBRANCH   4  19
TORSDOF 7
