REMARK SMILES O=C(Nc1cccc(OC(F)F)c1)c1ccc(Nc2ncccn2)cc1
REMARK SMILES IDX 4 1 5 2 6 3 7 4 8 5 13 6 3 7 1 8 2 9 14 11 15 12 26 13 16 14
REMARK SMILES IDX 25 15 17 16 18 17 19 19 20 20 24 21 21 22 23 23 22 24 9 25
REMARK SMILES IDX 10 26 11 27 12 28
REMARK H PARENT 3 10 18 18
ROOT
ATOM      1  C   UNL     1      -2.944   0.181   2.199  1.00  0.00     0.045 A 
ATOM      2  C   UNL     1      -4.332   0.377   2.252  1.00  0.00     0.026 A 
ATOM      3  C   UNL     1      -5.050   0.034   3.399  1.00  0.00     0.006 A 
ATOM      4  C   UNL     1      -4.392  -0.521   4.499  1.00  0.00     0.047 A 
ATOM      5  C   UNL     1      -3.011  -0.747   4.460  1.00  0.00     0.128 A 
ATOM      6  C   UNL     1      -2.289  -0.399   3.301  1.00  0.00     0.072 A 
ENDROOT
BRANCH   1   7
ATOM      7  N   UNL     1      -2.229   0.525   0.999  1.00  0.00    -0.322 N 
ATOM      8  O   UNL     1      -0.355   1.465   2.027  1.00  0.00    -0.269 OA
ATOM      9  C   UNL     1      -0.861   0.966   0.985  1.00  0.00     0.255 C 
ATOM     10  H   UNL     1      -2.768   0.567   0.105  1.00  0.00     0.170 HD
BRANCH   9  11
ATOM     11  C   UNL     1      -0.049   0.887  -0.255  1.00  0.00     0.040 A 
ATOM     12  C   UNL     1      -0.413   0.025  -1.304  1.00  0.00     0.016 A 
ATOM     13  C   UNL     1       1.111   1.670  -0.391  1.00  0.00     0.016 A 
ATOM     14  C   UNL     1       0.363  -0.046  -2.465  1.00  0.00     0.027 A 
ATOM     15  C   UNL     1       1.886   1.597  -1.552  1.00  0.00     0.027 A 
ATOM     16  C   UNL     1       1.527   0.723  -2.592  1.00  0.00     0.041 A 
BRANCH  16  17
ATOM     17  N   UNL     1       2.294   0.648  -3.806  1.00  0.00    -0.324 N 
ATOM     18  H   UNL     1       1.789   0.424  -4.694  1.00  0.00     0.170 HD
BRANCH  17  19
ATOM     19  C   UNL     1       3.724   0.750  -3.866  1.00  0.00     0.227 A 
ATOM     20  N   UNL     1       4.478   0.656  -2.736  1.00  0.00    -0.221 NA
ATOM     21  N   UNL     1       4.336   0.889  -5.073  1.00  0.00    -0.221 NA
ATOM     22  C   UNL     1       5.834   0.722  -2.790  1.00  0.00     0.117 A 
ATOM     23  C   UNL     1       5.689   0.959  -5.169  1.00  0.00     0.117 A 
ATOM     24  C   UNL     1       6.473   0.878  -4.019  1.00  0.00     0.040 A 
ENDBRANCH  17  19
ENDBRANCH  16  17
ENDBRANCH   9  11
ENDBRANCH   1   7
BRANCH   5  25
ATOM     25  O   UNL     1      -2.401  -1.319   5.588  1.00  0.00    -0.435 OA
BRANCH  25  26
ATOM     26  C   UNL     1      -1.015  -1.631   5.692  1.00  0.00     0.542 C 
ATOM     27  F   UNL     1      -0.685  -2.624   4.787  1.00  0.00    -0.167 F 
ATOM     28  F   UNL     1      -0.748  -2.083   6.970  1.00  0.00    -0.167 F 
ENDBRANCH  25  26
ENDBRANCH   5  25
TORSDOF 6
