REMARK SMILES O=C1C[C@@](O)(C(=O)N2CC(CF)C2)c2cc(Br)ccc2N1
REMARK SMILES IDX 4 1 3 2 2 3 1 4 21 5 20 6 19 7 18 8 16 9 17 10 15 11 14 12
REMARK SMILES IDX 6 14 7 15 8 16 9 17 13 18 10 19 11 20 12 21 5 22
REMARK H PARENT 21 13 5 23
ROOT
ATOM      1  C   UNL     1      -1.907  -1.041  -0.965  1.00  0.00     0.179 C 
ATOM      2  C   UNL     1      -2.566  -0.508  -2.261  1.00  0.00     0.151 C 
ATOM      3  C   UNL     1      -2.050   0.838  -2.650  1.00  0.00     0.228 C 
ATOM      4  O   UNL     1      -1.895   1.137  -3.864  1.00  0.00    -0.275 OA
ATOM      5  N   UNL     1      -1.824   1.815  -1.637  1.00  0.00    -0.326 N 
ATOM      6  C   UNL     1      -1.776   1.427  -0.259  1.00  0.00     0.047 A 
ATOM      7  C   UNL     1      -1.635   2.412   0.728  1.00  0.00     0.028 A 
ATOM      8  C   UNL     1      -1.498   2.055   2.069  1.00  0.00     0.018 A 
ATOM      9  C   UNL     1      -1.484   0.709   2.435  1.00  0.00     0.018 A 
ATOM     10  Br  UNL     1      -1.256   0.223   4.268  1.00  0.00    -0.051 Br
ATOM     11  C   UNL     1      -1.623  -0.284   1.462  1.00  0.00     0.025 A 
ATOM     12  C   UNL     1      -1.796   0.056   0.103  1.00  0.00     0.018 A 
ATOM     13  H   UNL     1      -1.645   2.807  -1.913  1.00  0.00     0.169 HD
ENDROOT
BRANCH   1  14
ATOM     14  C   UNL     1      -0.544  -1.637  -1.317  1.00  0.00     0.259 C 
ATOM     15  O   UNL     1      -0.501  -2.804  -1.792  1.00  0.00    -0.271 OA
ATOM     16  N   UNL     1       0.688  -0.915  -1.187  1.00  0.00    -0.339 N 
ATOM     17  C   UNL     1       2.107  -1.233  -1.436  1.00  0.00     0.127 C 
ATOM     18  C   UNL     1       1.202   0.412  -0.789  1.00  0.00     0.127 C 
ATOM     19  C   UNL     1       2.647   0.103  -1.029  1.00  0.00     0.059 C 
BRANCH  19  20
ATOM     20  C   UNL     1       3.520   0.087   0.235  1.00  0.00     0.221 C 
ATOM     21  F   UNL     1       2.934  -0.637   1.260  1.00  0.00    -0.251 F 
ENDBRANCH  19  20
ENDBRANCH   1  14
BRANCH   1  22
ATOM     22  O   UNL     1      -2.764  -2.059  -0.488  1.00  0.00    -0.375 OA
ATOM     23  H   UNL     1      -2.260  -2.655   0.126  1.00  0.00     0.212 HD
ENDBRANCH   1  22
TORSDOF 3
