REMARK SMILES COc1ccc2nc(NC(=O)N3CCC[C@H](Nc4ccccc4)C3)sc2n1
REMARK SMILES IDX 9 1 10 2 11 3 8 5 3 6 4 7 27 8 5 9 26 10 6 11 25 12 7 13
REMARK SMILES IDX 2 14 1 15 12 16 13 17 24 18 14 19 16 20 15 21 17 22 18 24
REMARK SMILES IDX 19 25 23 26 20 27 22 28 21 29
REMARK H PARENT 9 4 17 23
ROOT
ATOM      1  N   UNL     1       0.507   0.319  -0.362  1.00  0.00    -0.283 N 
ATOM      2  C   UNL     1       1.388   1.445  -0.220  1.00  0.00     0.323 C 
ATOM      3  O   UNL     1       1.541   2.252  -1.177  1.00  0.00    -0.248 OA
ATOM      4  H   UNL     1       0.669  -0.517   0.243  1.00  0.00     0.174 HD
ENDROOT
BRANCH   1   5
ATOM      5  C   UNL     1      -0.559   0.240  -1.318  1.00  0.00     0.193 A 
ATOM      6  C   UNL     1      -4.141  -0.005  -4.324  1.00  0.00     0.214 A 
ATOM      7  C   UNL     1      -4.098  -1.326  -3.829  1.00  0.00     0.071 A 
ATOM      8  N   UNL     1      -3.245   0.926  -3.872  1.00  0.00    -0.201 NA
ATOM      9  C   UNL     1      -3.135  -1.686  -2.872  1.00  0.00     0.037 A 
ATOM     10  C   UNL     1      -2.319   0.567  -2.950  1.00  0.00     0.149 A 
ATOM     11  C   UNL     1      -2.240  -0.711  -2.438  1.00  0.00     0.103 A 
ATOM     12  S   UNL     1      -1.141   1.536  -2.257  1.00  0.00    -0.076 S 
ATOM     13  N   UNL     1      -1.261  -0.904  -1.519  1.00  0.00    -0.218 NA
BRANCH   6  14
ATOM     14  O   UNL     1      -5.105   0.337  -5.277  1.00  0.00    -0.481 OA
ATOM     15  C   UNL     1      -5.215   1.644  -5.825  1.00  0.00     0.280 C 
ENDBRANCH   6  14
ENDBRANCH   1   5
BRANCH   2  16
ATOM     16  N   UNL     1       2.153   1.626   0.986  1.00  0.00    -0.322 N 
ATOM     17  C   UNL     1       3.453   2.310   0.924  1.00  0.00     0.121 C 
ATOM     18  C   UNL     1       1.645   1.170   2.286  1.00  0.00     0.146 C 
ATOM     19  C   UNL     1       4.245   2.125   2.228  1.00  0.00     0.024 C 
ATOM     20  C   UNL     1       2.667   0.227   2.963  1.00  0.00     0.098 C 
ATOM     21  C   UNL     1       4.139   0.670   2.704  1.00  0.00     0.028 C 
BRANCH  20  22
ATOM     22  N   UNL     1       2.448  -1.158   2.515  1.00  0.00    -0.381 N 
ATOM     23  H   UNL     1       3.137  -1.585   1.855  1.00  0.00     0.160 HD
BRANCH  22  24
ATOM     24  C   UNL     1       1.308  -1.965   2.877  1.00  0.00     0.034 A 
ATOM     25  C   UNL     1       0.371  -1.550   3.847  1.00  0.00     0.025 A 
ATOM     26  C   UNL     1       1.121  -3.206   2.244  1.00  0.00     0.025 A 
ATOM     27  C   UNL     1      -0.725  -2.360   4.163  1.00  0.00     0.002 A 
ATOM     28  C   UNL     1       0.024  -4.011   2.564  1.00  0.00     0.002 A 
ATOM     29  C   UNL     1      -0.898  -3.588   3.522  1.00  0.00     0.000 A 
ENDBRANCH  22  24
ENDBRANCH  20  22
ENDBRANCH   2  16
TORSDOF 5
