REMARK SMILES COc1nc(C)cc(N2CCN(C(=O)C3CCCCC3)CC2)n1
REMARK SMILES IDX 3 1 4 2 5 3 6 4 7 5 8 6 23 7 2 8 1 9 9 10 10 11 22 12 11 13
REMARK SMILES IDX 21 14 12 15 13 16 14 17 15 18 16 19 20 20 17 21 19 22 18 23
REMARK H PARENT
ROOT
ATOM      1  C   UNL     1       1.355   1.703  -5.164  1.00  0.00     0.318 A 
ATOM      2  N   UNL     1       2.533   1.081  -5.425  1.00  0.00    -0.200 NA
ATOM      3  C   UNL     1       3.169   0.356  -4.468  1.00  0.00     0.047 A 
ATOM      4  C   UNL     1       4.481  -0.293  -4.781  1.00  0.00     0.067 C 
ATOM      5  C   UNL     1       2.615   0.257  -3.187  1.00  0.00     0.070 A 
ATOM      6  C   UNL     1       1.390   0.896  -2.921  1.00  0.00     0.136 A 
ATOM      7  N   UNL     1       0.801   1.607  -3.924  1.00  0.00    -0.178 NA
ENDROOT
BRANCH   1   8
ATOM      8  O   UNL     1       0.722   2.426  -6.180  1.00  0.00    -0.467 OA
ATOM      9  C   UNL     1      -0.497   3.131  -5.976  1.00  0.00     0.282 C 
ENDBRANCH   1   8
BRANCH   6  10
ATOM     10  N   UNL     1       0.735   0.780  -1.632  1.00  0.00    -0.353 N 
ATOM     11  C   UNL     1       1.283  -0.103  -0.587  1.00  0.00     0.139 C 
ATOM     12  C   UNL     1      -0.498   1.530  -1.341  1.00  0.00     0.139 C 
ATOM     13  C   UNL     1       0.395  -0.148   0.663  1.00  0.00     0.141 C 
ATOM     14  C   UNL     1      -1.562   0.585  -0.773  1.00  0.00     0.141 C 
ATOM     15  N   UNL     1      -1.020  -0.296   0.278  1.00  0.00    -0.339 N 
ATOM     16  C   UNL     1      -1.934  -1.216   0.930  1.00  0.00     0.225 C 
ATOM     17  O   UNL     1      -3.147  -1.225   0.573  1.00  0.00    -0.275 OA
BRANCH  16  18
ATOM     18  C   UNL     1      -1.477  -2.238   1.960  1.00  0.00     0.078 C 
ATOM     19  C   UNL     1      -2.628  -2.664   2.916  1.00  0.00     0.013 C 
ATOM     20  C   UNL     1      -0.830  -3.450   1.235  1.00  0.00     0.013 C 
ATOM     21  C   UNL     1      -3.351  -3.923   2.416  1.00  0.00     0.001 C 
ATOM     22  C   UNL     1      -0.928  -4.734   2.067  1.00  0.00     0.001 C 
ATOM     23  C   UNL     1      -2.395  -5.132   2.328  1.00  0.00     0.000 C 
ENDBRANCH  16  18
ENDBRANCH   6  10
TORSDOF 3
