REMARK SMILES CCCNC(=O)C1CCN(C(=O)c2cccc(Cl)c2)CC1
REMARK SMILES IDX 4 1 5 2 6 3 3 5 2 6 1 7 7 8 8 9 21 10 9 11 20 12 10 13 11 14
REMARK SMILES IDX 12 15 13 16 14 17 19 18 15 19 17 20 16 21 18 22
REMARK H PARENT 4 4
ROOT
ATOM      1  N   UNL     1      -2.273  -2.248   0.749  1.00  0.00    -0.356 N 
ATOM      2  C   UNL     1      -1.982  -0.869   1.022  1.00  0.00     0.223 C 
ATOM      3  O   UNL     1      -2.628  -0.246   1.908  1.00  0.00    -0.275 OA
ATOM      4  H   UNL     1      -1.723  -2.749   0.015  1.00  0.00     0.163 HD
ENDROOT
BRANCH   1   5
ATOM      5  C   UNL     1      -3.208  -3.035   1.554  1.00  0.00     0.115 C 
BRANCH   5   6
ATOM      6  C   UNL     1      -2.455  -3.936   2.538  1.00  0.00     0.018 C 
ATOM      7  C   UNL     1      -1.713  -3.133   3.605  1.00  0.00     0.006 C 
ENDBRANCH   5   6
ENDBRANCH   1   5
BRANCH   2   8
ATOM      8  C   UNL     1      -0.909  -0.151   0.241  1.00  0.00     0.082 C 
ATOM      9  C   UNL     1       0.137   0.461   1.192  1.00  0.00     0.035 C 
ATOM     10  C   UNL     1      -1.528   0.910  -0.708  1.00  0.00     0.035 C 
ATOM     11  C   UNL     1       1.278   1.095   0.382  1.00  0.00     0.120 C 
ATOM     12  C   UNL     1      -0.662   2.173  -0.852  1.00  0.00     0.120 C 
ATOM     13  N   UNL     1       0.766   1.836  -0.784  1.00  0.00    -0.339 N 
ATOM     14  C   UNL     1       1.613   2.045  -1.930  1.00  0.00     0.253 C 
ATOM     15  O   UNL     1       1.137   1.901  -3.089  1.00  0.00    -0.269 OA
BRANCH  14  16
ATOM     16  C   UNL     1       3.040   2.407  -1.779  1.00  0.00     0.041 A 
ATOM     17  C   UNL     1       3.990   1.932  -2.700  1.00  0.00     0.014 A 
ATOM     18  C   UNL     1       3.457   3.259  -0.743  1.00  0.00     0.034 A 
ATOM     19  C   UNL     1       5.338   2.279  -2.566  1.00  0.00     0.002 A 
ATOM     20  C   UNL     1       4.807   3.605  -0.612  1.00  0.00     0.041 A 
ATOM     21  C   UNL     1       5.747   3.112  -1.522  1.00  0.00     0.020 A 
ATOM     22  Cl  UNL     1       5.318   4.667   0.688  1.00  0.00    -0.084 Cl
ENDBRANCH  14  16
ENDBRANCH   2   8
TORSDOF 4
