REMARK SMILES O=C(Nc1cccc(OCCF)c1)c1ccc(Nc2ncccn2)cc1
REMARK SMILES IDX 4 1 5 2 6 3 7 4 8 5 13 6 3 7 1 8 2 9 14 11 15 12 26 13 16 14
REMARK SMILES IDX 25 15 17 16 18 17 19 19 20 20 24 21 21 22 23 23 22 24 9 25
REMARK SMILES IDX 10 26 11 27 12 28
REMARK H PARENT 3 10 18 18
ROOT
ATOM      1  C   UNL     1       1.116   1.754   1.423  1.00  0.00     0.045 A 
ATOM      2  C   UNL     1       2.103   2.558   0.826  1.00  0.00     0.026 A 
ATOM      3  C   UNL     1       2.929   3.361   1.614  1.00  0.00     0.006 A 
ATOM      4  C   UNL     1       2.788   3.362   3.003  1.00  0.00     0.046 A 
ATOM      5  C   UNL     1       1.830   2.551   3.622  1.00  0.00     0.121 A 
ATOM      6  C   UNL     1       0.995   1.744   2.822  1.00  0.00     0.072 A 
ENDROOT
BRANCH   1   7
ATOM      7  N   UNL     1       0.268   0.901   0.635  1.00  0.00    -0.322 N 
ATOM      8  O   UNL     1      -0.154   2.414  -1.094  1.00  0.00    -0.269 OA
ATOM      9  C   UNL     1      -0.159   1.214  -0.702  1.00  0.00     0.255 C 
ATOM     10  H   UNL     1      -0.151   0.064   1.100  1.00  0.00     0.170 HD
BRANCH   9  11
ATOM     11  C   UNL     1      -0.655   0.152  -1.610  1.00  0.00     0.040 A 
ATOM     12  C   UNL     1      -1.431   0.486  -2.734  1.00  0.00     0.016 A 
ATOM     13  C   UNL     1      -0.335  -1.199  -1.385  1.00  0.00     0.016 A 
ATOM     14  C   UNL     1      -1.897  -0.510  -3.597  1.00  0.00     0.027 A 
ATOM     15  C   UNL     1      -0.802  -2.193  -2.249  1.00  0.00     0.027 A 
ATOM     16  C   UNL     1      -1.607  -1.858  -3.351  1.00  0.00     0.041 A 
BRANCH  16  17
ATOM     17  N   UNL     1      -2.078  -2.860  -4.267  1.00  0.00    -0.324 N 
ATOM     18  H   UNL     1      -2.209  -2.590  -5.269  1.00  0.00     0.170 HD
BRANCH  17  19
ATOM     19  C   UNL     1      -2.487  -4.180  -3.880  1.00  0.00     0.227 A 
ATOM     20  N   UNL     1      -2.709  -4.486  -2.571  1.00  0.00    -0.221 NA
ATOM     21  N   UNL     1      -2.706  -5.122  -4.837  1.00  0.00    -0.221 NA
ATOM     22  C   UNL     1      -3.125  -5.726  -2.202  1.00  0.00     0.117 A 
ATOM     23  C   UNL     1      -3.122  -6.373  -4.508  1.00  0.00     0.117 A 
ATOM     24  C   UNL     1      -3.340  -6.704  -3.171  1.00  0.00     0.040 A 
ENDBRANCH  17  19
ENDBRANCH  16  17
ENDBRANCH   9  11
ENDBRANCH   1   7
BRANCH   5  25
ATOM     25  O   UNL     1       1.740   2.586   5.023  1.00  0.00    -0.491 OA
BRANCH  25  26
ATOM     26  C   UNL     1       0.900   1.755   5.825  1.00  0.00     0.263 C 
BRANCH  26  27
ATOM     27  C   UNL     1       1.472   0.344   5.924  1.00  0.00     0.256 C 
ATOM     28  F   UNL     1       0.668  -0.427   6.743  1.00  0.00    -0.247 F 
ENDBRANCH  26  27
ENDBRANCH  25  26
ENDBRANCH   5  25
TORSDOF 7
