REMARK SMILES Cc1ccccc1C(=O)Nc1nc(-c2ccccc2OC(F)F)cs1
REMARK SMILES IDX 14 1 15 2 16 3 17 4 18 5 19 6 13 7 11 8 12 9 25 10 24 11
REMARK SMILES IDX 10 12 8 13 9 14 7 16 2 17 3 18 4 19 6 20 5 21 1 22 20 23
REMARK SMILES IDX 21 24 22 25 23 26
REMARK H PARENT 10 15
ROOT
ATOM      1  C   UNL     1       3.237   1.500  -0.321  1.00  0.00     0.043 A 
ATOM      2  C   UNL     1       4.413   2.218  -0.027  1.00  0.00     0.014 A 
ATOM      3  C   UNL     1       5.640   1.827  -0.565  1.00  0.00     0.001 A 
ATOM      4  C   UNL     1       5.714   0.716  -1.402  1.00  0.00     0.004 A 
ATOM      5  C   UNL     1       4.563  -0.010  -1.705  1.00  0.00     0.047 A 
ATOM      6  C   UNL     1       3.313   0.371  -1.173  1.00  0.00     0.135 A 
ENDROOT
BRANCH   1   7
ATOM      7  C   UNL     1       1.942   1.923   0.275  1.00  0.00     0.087 A 
ATOM      8  C   UNL     1      -0.152   1.629   1.043  1.00  0.00     0.190 A 
ATOM      9  N   UNL     1       0.930   1.038   0.495  1.00  0.00    -0.220 NA
ATOM     10  S   UNL     1       0.086   3.274   1.272  1.00  0.00    -0.105 S 
ATOM     11  C   UNL     1       1.651   3.237   0.654  1.00  0.00     0.097 A 
BRANCH   8  12
ATOM     12  N   UNL     1      -1.371   0.943   1.352  1.00  0.00    -0.298 N 
ATOM     13  C   UNL     1      -1.550  -0.471   1.178  1.00  0.00     0.257 C 
ATOM     14  O   UNL     1      -0.551  -1.224   1.021  1.00  0.00    -0.269 OA
ATOM     15  H   UNL     1      -2.165   1.506   1.731  1.00  0.00     0.172 HD
BRANCH  13  16
ATOM     16  C   UNL     1      -2.901  -1.071   1.243  1.00  0.00     0.043 A 
ATOM     17  C   UNL     1      -4.002  -0.544   0.518  1.00  0.00    -0.038 A 
ATOM     18  C   UNL     1      -5.269  -1.135   0.668  1.00  0.00     0.004 A 
ATOM     19  C   UNL     1      -5.439  -2.254   1.486  1.00  0.00     0.000 A 
ATOM     20  C   UNL     1      -3.088  -2.211   2.044  1.00  0.00     0.014 A 
ATOM     21  C   UNL     1      -4.350  -2.796   2.165  1.00  0.00     0.001 A 
ATOM     22  C   UNL     1      -3.862   0.631  -0.414  1.00  0.00     0.045 C 
ENDBRANCH  13  16
ENDBRANCH   8  12
ENDBRANCH   1   7
BRANCH   6  23
ATOM     23  O   UNL     1       2.138  -0.336  -1.484  1.00  0.00    -0.434 OA
BRANCH  23  24
ATOM     24  C   UNL     1       2.074  -1.510  -2.288  1.00  0.00     0.542 C 
ATOM     25  F   UNL     1       2.764  -2.540  -1.675  1.00  0.00    -0.167 F 
ATOM     26  F   UNL     1       0.752  -1.882  -2.437  1.00  0.00    -0.167 F 
ENDBRANCH  23  24
ENDBRANCH   6  23
TORSDOF 5
