REMARK SMILES COc1ccc(-c2nc(CCNC(=O)c3cncc(F)c3)co2)cc1
REMARK SMILES IDX 10 1 9 2 7 3 8 4 23 5 22 6 6 7 3 8 4 9 25 10 5 11 24 12 2 13
REMARK SMILES IDX 1 14 11 15 12 16 13 17 14 18 15 20 16 21 21 22 17 23 19 24
REMARK SMILES IDX 18 25 20 26
REMARK H PARENT 12 19
ROOT
ATOM      1  C   UNL     1       0.701   3.292  -1.116  1.00  0.00     0.081 C 
ENDROOT
BRANCH   1   2
ATOM      2  C   UNL     1      -0.038   2.063  -0.682  1.00  0.00     0.081 A 
ATOM      3  C   UNL     1      -1.123   0.666   0.472  1.00  0.00     0.226 A 
ATOM      4  N   UNL     1      -0.678   1.942   0.496  1.00  0.00    -0.214 NA
ATOM      5  O   UNL     1      -0.780   0.031  -0.630  1.00  0.00    -0.444 OA
ATOM      6  C   UNL     1      -0.099   0.871  -1.368  1.00  0.00     0.221 A 
BRANCH   3   7
ATOM      7  C   UNL     1      -1.902   0.047   1.563  1.00  0.00     0.037 A 
ATOM      8  C   UNL     1      -3.389  -1.144   3.642  1.00  0.00     0.118 A 
ATOM      9  C   UNL     1      -3.023  -1.894   2.507  1.00  0.00     0.047 A 
ATOM     10  C   UNL     1      -3.007   0.199   3.723  1.00  0.00     0.047 A 
ATOM     11  C   UNL     1      -2.288  -1.301   1.477  1.00  0.00     0.017 A 
ATOM     12  C   UNL     1      -2.268   0.793   2.695  1.00  0.00     0.017 A 
BRANCH   8  13
ATOM     13  O   UNL     1      -4.124  -1.695   4.702  1.00  0.00    -0.497 OA
ATOM     14  C   UNL     1      -4.532  -3.057   4.775  1.00  0.00     0.278 C 
ENDBRANCH   8  13
ENDBRANCH   3   7
ENDBRANCH   1   2
BRANCH   1  15
ATOM     15  C   UNL     1       2.079   3.380  -0.448  1.00  0.00     0.122 C 
BRANCH  15  16
ATOM     16  N   UNL     1       2.877   2.185  -0.721  1.00  0.00    -0.352 N 
ATOM     17  C   UNL     1       3.393   1.882  -2.027  1.00  0.00     0.252 C 
ATOM     18  O   UNL     1       3.428   2.783  -2.909  1.00  0.00    -0.269 OA
ATOM     19  H   UNL     1       3.103   1.554   0.081  1.00  0.00     0.163 HD
BRANCH  17  20
ATOM     20  C   UNL     1       3.894   0.525  -2.349  1.00  0.00     0.061 A 
ATOM     21  C   UNL     1       4.809   0.333  -3.399  1.00  0.00     0.125 A 
ATOM     22  C   UNL     1       3.451  -0.602  -1.636  1.00  0.00     0.056 A 
ATOM     23  N   UNL     1       5.261  -0.914  -3.697  1.00  0.00    -0.261 NA
ATOM     24  C   UNL     1       3.933  -1.872  -1.963  1.00  0.00     0.142 A 
ATOM     25  C   UNL     1       4.849  -2.009  -3.006  1.00  0.00     0.150 A 
ATOM     26  F   UNL     1       3.507  -2.963  -1.278  1.00  0.00    -0.205 F 
ENDBRANCH  17  20
ENDBRANCH  15  16
ENDBRANCH   1  15
TORSDOF 6
