REMARK SMILES CC(C)c1nnc2ccc(NC(=O)N3CCCc4ccccc4CC3)cn12
REMARK SMILES IDX 14 1 12 2 11 3 13 4 10 6 4 7 5 8 27 9 6 10 26 11 7 12 8 13
REMARK SMILES IDX 9 14 2 15 1 16 3 17 15 18 16 19 25 21 24 22 23 23 22 24
REMARK SMILES IDX 18 25 21 26 19 27 20 28 17 29
REMARK H PARENT 11 5
REMARK Flexibility Score:   60.900
ROOT
ATOM      1  N   UNL     1       0.721   1.120   1.823  1.00  0.00    -0.324 N 
ENDROOT
BRANCH   1   2
ATOM      2  C   UNL     1       0.135   1.387   0.530  1.00  0.00     0.321 C 
ATOM      3  N   UNL     1       0.573   0.673  -0.639  1.00  0.00    -0.306 N 
ATOM      4  O   UNL     1      -0.817   2.211   0.438  1.00  0.00    -0.248 OA
ATOM      5  H   UNL     1       1.069  -0.233  -0.505  1.00  0.00     0.171 HD
BRANCH   3   6
ATOM      6  C   UNL     1       0.188   1.018  -1.979  1.00  0.00     0.059 A 
ATOM      7  C   UNL     1      -0.577  -0.368  -5.307  1.00  0.00     0.140 A 
ATOM      8  N   UNL     1      -0.923   0.448  -6.331  1.00  0.00    -0.134 NA
ATOM      9  N   UNL     1      -0.326   0.352  -4.199  1.00  0.00    -0.284 N 
ATOM     10  N   UNL     1      -0.872   1.700  -5.883  1.00  0.00    -0.130 NA
ATOM     11  C   UNL     1       0.016  -0.003  -2.934  1.00  0.00     0.120 A 
ATOM     12  C   UNL     1      -0.510   1.619  -4.590  1.00  0.00     0.160 A 
ATOM     13  C   UNL     1      -0.339   2.678  -3.705  1.00  0.00     0.052 A 
ATOM     14  C   UNL     1       0.024   2.367  -2.384  1.00  0.00     0.031 A 
BRANCH   7  15
ATOM     15  C   UNL     1      -0.587  -1.875  -5.379  1.00  0.00     0.052 C 
ATOM     16  C   UNL     1      -0.225  -2.368  -6.785  1.00  0.00     0.016 C 
ATOM     17  C   UNL     1      -1.955  -2.410  -4.951  1.00  0.00     0.016 C 
ENDBRANCH   7  15
ENDBRANCH   3   6
ENDBRANCH   1   2
BRANCH   1  18
ATOM     18  C   UNL     1      -0.046   1.416   3.041  1.00  0.00     0.121 C 
BRANCH  18  19
ATOM     19  C   UNL     1      -1.211   0.429   3.214  1.00  0.00     0.026 CG0
ATOM     20  G   UNL     1      -0.755  -0.988   3.595  1.00  0.00     0.000 G0
ENDBRANCH  18  19
ENDBRANCH   1  18
BRANCH   1  21
ATOM     21  C   UNL     1       2.100   0.622   1.950  1.00  0.00     0.126 C 
BRANCH  21  22
ATOM     22  C   UNL     1       2.145  -0.757   2.626  1.00  0.00     0.057 C 
BRANCH  22  23
ATOM     23  C   UNL     1       1.150  -1.715   2.006  1.00  0.00    -0.043 A 
ATOM     24  C   UNL     1       1.574  -2.496   0.915  1.00  0.00     0.004 A 
ATOM     25  C   UNL     1      -0.212  -1.772   2.414  1.00  0.00    -0.045 A 
ATOM     26  C   UNL     1       0.672  -3.304   0.223  1.00  0.00     0.000 A 
ATOM     27  C   UNL     1      -1.107  -2.582   1.690  1.00  0.00     0.004 A 
ATOM     28  C   UNL     1      -0.667  -3.341   0.605  1.00  0.00     0.000 A 
BRANCH  25  29
ATOM     29  C   UNL     1      -0.755  -0.988   3.595  1.00  0.00     0.037 CG0
ATOM     30  G   UNL     1      -1.211   0.429   3.214  1.00  0.00     0.000 G0
ENDBRANCH  25  29
ENDBRANCH  22  23
ENDBRANCH  21  22
ENDBRANCH   1  21
TORSDOF 3
