REMARK SMILES O=C(c1ccc2scnc2c1)N1CCC2(CCC(O)CC2)CC1
REMARK SMILES IDX 1 1 2 2 12 3 13 4 14 5 15 6 16 7 17 8 18 9 20 10 21 11 22 12
REMARK SMILES IDX 23 13 3 14 4 15 11 16 5 17 10 18 6 19 9 20 7 21 8 22 19 23
REMARK H PARENT 19 24
ROOT
ATOM      1  O   UNL     1      -3.350  -1.005   1.633  1.00  0.00    -0.269 OA
ATOM      2  C   UNL     1      -2.177  -1.083   1.177  1.00  0.00     0.253 C 
ATOM      3  N   UNL     1      -1.732  -0.114   0.209  1.00  0.00    -0.339 N 
ATOM      4  C   UNL     1      -2.253   1.256   0.285  1.00  0.00     0.120 C 
ATOM      5  C   UNL     1      -1.619   2.165  -0.781  1.00  0.00     0.028 C 
ATOM      6  C   UNL     1      -0.090   1.913  -0.923  1.00  0.00    -0.026 C 
ATOM      7  C   UNL     1       0.626   2.279   0.426  1.00  0.00     0.010 C 
ATOM      8  C   UNL     1       2.005   2.954   0.267  1.00  0.00     0.032 C 
ATOM      9  C   UNL     1       2.760   2.454  -0.972  1.00  0.00     0.114 C 
ATOM     10  C   UNL     1       1.966   2.731  -2.266  1.00  0.00     0.032 C 
ATOM     11  C   UNL     1       0.441   2.840  -2.052  1.00  0.00     0.010 C 
ATOM     12  C   UNL     1       0.162   0.408  -1.306  1.00  0.00     0.028 C 
ATOM     13  C   UNL     1      -1.013  -0.538  -0.998  1.00  0.00     0.120 C 
ENDROOT
BRANCH   2  14
ATOM     14  C   UNL     1      -1.284  -2.158   1.667  1.00  0.00     0.042 A 
ATOM     15  C   UNL     1      -1.833  -3.384   2.118  1.00  0.00     0.015 A 
ATOM     16  C   UNL     1       0.114  -1.960   1.724  1.00  0.00     0.043 A 
ATOM     17  C   UNL     1      -1.001  -4.409   2.596  1.00  0.00     0.022 A 
ATOM     18  C   UNL     1       0.927  -2.989   2.201  1.00  0.00     0.082 A 
ATOM     19  C   UNL     1       0.370  -4.182   2.623  1.00  0.00     0.054 A 
ATOM     20  N   UNL     1       2.279  -2.916   2.297  1.00  0.00    -0.245 NA
ATOM     21  S   UNL     1       1.595  -5.204   3.139  1.00  0.00    -0.122 S 
ATOM     22  C   UNL     1       2.799  -4.063   2.797  1.00  0.00     0.176 A 
ENDBRANCH   2  14
BRANCH   9  23
ATOM     23  O   UNL     1       4.012   3.086  -1.054  1.00  0.00    -0.393 OA
ATOM     24  H   UNL     1       4.591   2.671  -0.362  1.00  0.00     0.210 HD
ENDBRANCH   9  23
TORSDOF 2
