REMARK SMILES Cc1nc(N2CCCN(c3ccncc3)CC2)c(C)c(-n2cccn2)n1
REMARK SMILES IDX 17 1 5 2 4 3 2 4 3 5 26 6 20 7 18 8 1 9 19 10 21 11 22 12
REMARK SMILES IDX 25 13 23 14 24 15 6 16 7 17 16 19 9 20 8 21 10 23 11 24
REMARK SMILES IDX 15 25 12 26 14 27 13 28
REMARK H PARENT
REMARK Flexibility Score:   55.900
ROOT
ATOM      1  C   UNL     1       1.450  -0.797  -0.106  1.00  0.00     0.139 C 
ENDROOT
BRANCH   1   2
ATOM      2  N   UNL     1       0.087  -0.249  -0.211  1.00  0.00    -0.354 N 
BRANCH   2   3
ATOM      3  C   UNL     1      -0.056   1.169  -0.365  1.00  0.00     0.137 A 
ATOM      4  C   UNL     1      -0.426   3.007  -1.811  1.00  0.00     0.130 A 
ATOM      5  N   UNL     1      -0.294   1.674  -1.604  1.00  0.00    -0.216 NA
ATOM      6  N   UNL     1      -0.333   3.865  -0.765  1.00  0.00    -0.214 NA
ATOM      7  C   UNL     1      -0.095   3.430   0.503  1.00  0.00     0.162 A 
ATOM      8  C   UNL     1       0.020   2.037   0.746  1.00  0.00     0.036 A 
ATOM      9  C   UNL     1      -0.744   3.524  -3.173  1.00  0.00     0.090 C 
ATOM     10  C   UNL     1       0.180   1.482   2.143  1.00  0.00     0.052 C 
BRANCH   7  11
ATOM     11  N   UNL     1       0.009   4.408   1.556  1.00  0.00    -0.222 N 
ATOM     12  C   UNL     1      -0.539   5.638   1.540  1.00  0.00     0.117 A 
ATOM     13  N   UNL     1       0.704   4.253   2.672  1.00  0.00    -0.175 NA
ATOM     14  C   UNL     1      -0.192   6.289   2.703  1.00  0.00     0.042 A 
ATOM     15  C   UNL     1       0.589   5.383   3.392  1.00  0.00     0.135 A 
ENDBRANCH   7  11
ENDBRANCH   2   3
BRANCH   2  16
ATOM     16  C   UNL     1      -1.099  -1.095  -0.398  1.00  0.00     0.120 C 
BRANCH  16  17
ATOM     17  C   UNL     1      -1.021  -1.877  -1.714  1.00  0.00     0.043 CG0
ATOM     18  G   UNL     1       0.223  -2.776  -1.838  1.00  0.00     0.000 G0
ENDBRANCH  16  17
ENDBRANCH   2  16
ENDBRANCH   1   2
BRANCH   1  19
ATOM     19  C   UNL     1       1.495  -2.273   0.340  1.00  0.00     0.138 C 
BRANCH  19  20
ATOM     20  N   UNL     1       0.739  -3.202  -0.527  1.00  0.00    -0.370 N 
BRANCH  20  21
ATOM     21  C   UNL     1       0.223  -2.776  -1.838  1.00  0.00     0.118 CG0
ATOM     22  G   UNL     1      -1.021  -1.877  -1.714  1.00  0.00     0.000 G0
ENDBRANCH  20  21
BRANCH  20  23
ATOM     23  C   UNL     1       0.418  -4.516  -0.010  1.00  0.00     0.040 A 
ATOM     24  C   UNL     1       1.356  -5.235   0.748  1.00  0.00     0.046 A 
ATOM     25  C   UNL     1      -0.845  -5.096  -0.236  1.00  0.00     0.046 A 
ATOM     26  C   UNL     1       1.019  -6.491   1.265  1.00  0.00     0.113 A 
ATOM     27  C   UNL     1      -1.144  -6.348   0.308  1.00  0.00     0.113 A 
ATOM     28  N   UNL     1      -0.212  -7.016   1.034  1.00  0.00    -0.265 NA
ENDBRANCH  20  23
ENDBRANCH  19  20
ENDBRANCH   1  19
TORSDOF 3
