REMARK SMILES OCC[C@@H]1CN(C[C@]23C[C@](c4nn[nH]n4)(CO2)C3)c2ccccc21
REMARK SMILES IDX 4 1 5 2 6 3 19 4 20 5 21 6 22 7 23 8 24 9 3 10 2 11 1 12
REMARK SMILES IDX 7 14 8 15 9 16 18 17 17 18 10 19 16 20 11 21 12 22 15 23
REMARK SMILES IDX 13 24 14 25
REMARK H PARENT 1 13 14 26
ROOT
ATOM      1  C   UNL     1      -2.308  -2.314  -0.570  1.00  0.00     0.043 C 
ATOM      2  C   UNL     1      -0.764  -2.217  -0.750  1.00  0.00     0.125 C 
ATOM      3  N   UNL     1      -0.494  -0.834  -1.145  1.00  0.00    -0.368 N 
ATOM      4  C   UNL     1      -1.729  -0.155  -1.315  1.00  0.00     0.040 A 
ATOM      5  C   UNL     1      -1.921   1.151  -1.776  1.00  0.00     0.026 A 
ATOM      6  C   UNL     1      -3.236   1.628  -1.901  1.00  0.00     0.002 A 
ATOM      7  C   UNL     1      -4.326   0.797  -1.580  1.00  0.00     0.000 A 
ATOM      8  C   UNL     1      -4.106  -0.515  -1.132  1.00  0.00     0.006 A 
ATOM      9  C   UNL     1      -2.789  -0.965  -1.004  1.00  0.00    -0.020 A 
ENDROOT
BRANCH   1  10
ATOM     10  C   UNL     1      -2.738  -2.667   0.872  1.00  0.00     0.038 C 
BRANCH  10  11
ATOM     11  C   UNL     1      -2.390  -1.596   1.919  1.00  0.00     0.156 C 
BRANCH  11  12
ATOM     12  O   UNL     1      -2.801  -2.016   3.192  1.00  0.00    -0.396 OA
ATOM     13  H   UNL     1      -2.135  -2.687   3.498  1.00  0.00     0.210 HD
ENDBRANCH  11  12
ENDBRANCH  10  11
ENDBRANCH   1  10
BRANCH   3  14
ATOM     14  C   UNL     1       0.835  -0.309  -1.449  1.00  0.00     0.152 C 
BRANCH  14  15
ATOM     15  C   UNL     1       1.351   0.546  -0.292  1.00  0.00     0.088 C 
ATOM     16  C   UNL     1       1.688  -0.125   1.032  1.00  0.00     0.055 C 
ATOM     17  C   UNL     1       2.769   1.094  -0.371  1.00  0.00     0.055 C 
ATOM     18  O   UNL     1       0.569   1.669   0.078  1.00  0.00    -0.372 OA
ATOM     19  C   UNL     1       2.503   1.149   1.120  1.00  0.00     0.063 C 
ATOM     20  C   UNL     1       1.377   2.170   1.138  1.00  0.00     0.176 C 
BRANCH  19  21
ATOM     21  C   UNL     1       3.640   1.251   2.085  1.00  0.00     0.183 A 
ATOM     22  N   UNL     1       4.757   1.971   1.866  1.00  0.00    -0.113 NA
ATOM     23  N   UNL     1       3.637   0.709   3.317  1.00  0.00    -0.139 NA
ATOM     24  N   UNL     1       5.460   1.849   2.981  1.00  0.00    -0.050 NA
ATOM     25  N   UNL     1       4.789   1.097   3.836  1.00  0.00    -0.177 N 
ATOM     26  H   UNL     1       5.120   0.850   4.794  1.00  0.00     0.216 HD
ENDBRANCH  19  21
ENDBRANCH  14  15
ENDBRANCH   3  14
TORSDOF 6
