REMARK SMILES CC(C)c1nnc2ccc(NC(=O)N3CCCc4ccccc4CC3)cn12
REMARK SMILES IDX 14 1 12 2 11 3 13 4 10 6 4 7 5 8 27 9 6 10 26 11 7 12 8 13
REMARK SMILES IDX 9 14 2 15 1 16 3 17 15 18 16 19 25 21 24 22 23 23 22 24
REMARK SMILES IDX 18 25 21 26 19 27 20 28 17 29
REMARK H PARENT 11 5
REMARK Flexibility Score:   60.900
ROOT
ATOM      1  N   UNL     1       2.357   0.679  -1.002  1.00  0.00    -0.324 N 
ENDROOT
BRANCH   1   2
ATOM      2  C   UNL     1       1.290   1.463  -0.422  1.00  0.00     0.321 C 
ATOM      3  N   UNL     1       0.230   1.984  -1.238  1.00  0.00    -0.306 N 
ATOM      4  O   UNL     1       1.308   1.738   0.808  1.00  0.00    -0.248 OA
ATOM      5  H   UNL     1       0.466   2.317  -2.200  1.00  0.00     0.171 HD
BRANCH   3   6
ATOM      6  C   UNL     1      -1.102   2.202  -0.747  1.00  0.00     0.059 A 
ATOM      7  C   UNL     1      -3.712   1.097   1.633  1.00  0.00     0.140 A 
ATOM      8  N   UNL     1      -4.919   1.709   1.649  1.00  0.00    -0.134 NA
ATOM      9  N   UNL     1      -2.915   1.654   0.695  1.00  0.00    -0.284 N 
ATOM     10  N   UNL     1      -4.902   2.661   0.723  1.00  0.00    -0.130 NA
ATOM     11  C   UNL     1      -1.643   1.405   0.284  1.00  0.00     0.120 A 
ATOM     12  C   UNL     1      -3.684   2.612   0.157  1.00  0.00     0.160 A 
ATOM     13  C   UNL     1      -3.220   3.419  -0.876  1.00  0.00     0.052 A 
ATOM     14  C   UNL     1      -1.912   3.200  -1.333  1.00  0.00     0.031 A 
BRANCH   7  15
ATOM     15  C   UNL     1      -3.374  -0.056   2.549  1.00  0.00     0.052 C 
ATOM     16  C   UNL     1      -2.201   0.273   3.479  1.00  0.00     0.016 C 
ATOM     17  C   UNL     1      -3.141  -1.350   1.764  1.00  0.00     0.016 C 
ENDBRANCH   7  15
ENDBRANCH   3   6
ENDBRANCH   1   2
BRANCH   1  18
ATOM     18  C   UNL     1       3.658   0.601  -0.317  1.00  0.00     0.121 C 
BRANCH  18  19
ATOM     19  C   UNL     1       3.623  -0.343   0.898  1.00  0.00     0.026 CG0
ATOM     20  G   UNL     1       3.536  -1.831   0.527  1.00  0.00     0.000 G0
ENDBRANCH  18  19
ENDBRANCH   1  18
BRANCH   1  21
ATOM     21  C   UNL     1       2.207   0.070  -2.336  1.00  0.00     0.126 C 
BRANCH  21  22
ATOM     22  C   UNL     1       2.458  -1.441  -2.304  1.00  0.00     0.057 C 
BRANCH  22  23
ATOM     23  C   UNL     1       1.649  -2.101  -1.210  1.00  0.00    -0.043 A 
ATOM     24  C   UNL     1       0.326  -2.483  -1.500  1.00  0.00     0.004 A 
ATOM     25  C   UNL     1       2.136  -2.245   0.118  1.00  0.00    -0.045 A 
ATOM     26  C   UNL     1      -0.498  -3.012  -0.508  1.00  0.00     0.000 A 
ATOM     27  C   UNL     1       1.280  -2.762   1.108  1.00  0.00     0.004 A 
ATOM     28  C   UNL     1      -0.022  -3.150   0.794  1.00  0.00     0.000 A 
BRANCH  25  29
ATOM     29  C   UNL     1       3.536  -1.831   0.527  1.00  0.00     0.037 CG0
ATOM     30  G   UNL     1       3.623  -0.343   0.898  1.00  0.00     0.000 G0
ENDBRANCH  25  29
ENDBRANCH  22  23
ENDBRANCH  21  22
ENDBRANCH   1  21
TORSDOF 3
