REMARK SMILES O=c1[nH]c(CN2CCC(c3nc4ccccc4[nH]3)CC2)nc2c1oc1ccccc12
REMARK SMILES IDX 6 1 7 2 8 3 9 4 19 5 20 6 5 7 4 8 1 9 2 10 3 11 23 12 24 13
REMARK SMILES IDX 22 14 21 15 25 16 30 17 26 18 29 19 27 20 28 21 10 23 11 24
REMARK SMILES IDX 18 25 12 26 17 27 13 28 16 29 14 30 15 31
REMARK H PARENT 3 22 18 32
ROOT
ATOM      1  N   UNL     1       0.892   1.110   2.341  1.00  0.00    -0.296 NA
ATOM      2  C   UNL     1       0.979   2.572   2.145  1.00  0.00     0.086 C 
ATOM      3  C   UNL     1       2.143   2.944   1.198  1.00  0.00     0.027 C 
ATOM      4  C   UNL     1       3.063   1.743   0.881  1.00  0.00     0.058 C 
ATOM      5  C   UNL     1       3.387   0.987   2.187  1.00  0.00     0.027 C 
ATOM      6  C   UNL     1       2.119   0.597   2.982  1.00  0.00     0.086 C 
ENDROOT
BRANCH   1   7
ATOM      7  C   UNL     1      -0.319   0.731   3.094  1.00  0.00     0.159 C 
BRANCH   7   8
ATOM      8  C   UNL     1      -1.456   0.565   2.132  1.00  0.00     0.124 A 
ATOM      9  O   UNL     1      -4.279   2.349   0.947  1.00  0.00    -0.265 OA
ATOM     10  C   UNL     1      -3.410   1.445   1.066  1.00  0.00     0.294 A 
ATOM     11  N   UNL     1      -2.415   1.546   2.000  1.00  0.00    -0.306 N 
ATOM     12  C   UNL     1      -3.428   0.325   0.249  1.00  0.00     0.218 A 
ATOM     13  O   UNL     1      -4.260   0.011  -0.725  1.00  0.00    -0.449 OA
ATOM     14  C   UNL     1      -2.469  -0.635   0.405  1.00  0.00     0.124 A 
ATOM     15  N   UNL     1      -1.478  -0.536   1.320  1.00  0.00    -0.229 NA
ATOM     16  C   UNL     1      -3.844  -1.149  -1.204  1.00  0.00     0.137 A 
ATOM     17  C   UNL     1      -2.726  -1.599  -0.530  1.00  0.00     0.047 A 
ATOM     18  C   UNL     1      -4.396  -1.884  -2.252  1.00  0.00     0.048 A 
ATOM     19  C   UNL     1      -2.091  -2.796  -0.852  1.00  0.00     0.014 A 
ATOM     20  C   UNL     1      -3.777  -3.100  -2.603  1.00  0.00     0.004 A 
ATOM     21  C   UNL     1      -2.632  -3.553  -1.907  1.00  0.00     0.001 A 
ATOM     22  H   UNL     1      -2.379   2.392   2.613  1.00  0.00     0.171 HD
ENDBRANCH   7   8
ENDBRANCH   1   7
BRANCH   4  23
ATOM     23  C   UNL     1       2.467   0.813  -0.157  1.00  0.00     0.110 A 
ATOM     24  N   UNL     1       1.211   0.954  -0.668  1.00  0.00    -0.233 NA
ATOM     25  N   UNL     1       3.138  -0.254  -0.663  1.00  0.00    -0.342 N 
ATOM     26  C   UNL     1       1.116  -0.080  -1.522  1.00  0.00     0.089 A 
ATOM     27  C   UNL     1       2.269  -0.807  -1.518  1.00  0.00     0.065 A 
ATOM     28  C   UNL     1       0.034  -0.422  -2.329  1.00  0.00     0.030 A 
ATOM     29  C   UNL     1       2.436  -1.936  -2.315  1.00  0.00     0.028 A 
ATOM     30  C   UNL     1       0.167  -1.556  -3.153  1.00  0.00     0.002 A 
ATOM     31  C   UNL     1       1.362  -2.312  -3.144  1.00  0.00     0.002 A 
ATOM     32  H   UNL     1       4.108  -0.572  -0.439  1.00  0.00     0.168 HD
ENDBRANCH   4  23
TORSDOF 3
