REMARK SMILES CCCn1nc(NCc2nc(CC3CC3)no2)c2ccccc21
REMARK SMILES IDX 7 1 6 3 4 4 5 5 23 6 22 7 18 8 21 9 19 10 20 11 3 12 2 13
REMARK SMILES IDX 1 14 8 15 9 16 10 17 17 18 11 19 16 20 12 21 13 22 14 23
REMARK SMILES IDX 15 24
REMARK H PARENT 7 2
ROOT
ATOM      1  N   UNL     1       0.161   0.214   0.308  1.00  0.00    -0.359 N 
ATOM      2  H   UNL     1       0.833   0.751  -0.287  1.00  0.00     0.162 HD
ENDROOT
BRANCH   1   3
ATOM      3  C   UNL     1       0.434  -1.163   0.588  1.00  0.00     0.156 A 
ATOM      4  N   UNL     1       0.209  -3.162   1.393  1.00  0.00    -0.263 N 
ATOM      5  N   UNL     1      -0.357  -1.960   1.346  1.00  0.00    -0.154 NA
ATOM      6  C   UNL     1       1.355  -3.133   0.679  1.00  0.00     0.070 A 
ATOM      7  C   UNL     1       2.282  -4.154   0.461  1.00  0.00     0.029 A 
ATOM      8  C   UNL     1       1.527  -1.882   0.153  1.00  0.00     0.044 A 
ATOM      9  C   UNL     1       3.410  -3.854  -0.327  1.00  0.00     0.002 A 
ATOM     10  C   UNL     1       2.631  -1.551  -0.630  1.00  0.00     0.014 A 
ATOM     11  C   UNL     1       3.583  -2.560  -0.870  1.00  0.00     0.001 A 
BRANCH   4  12
ATOM     12  C   UNL     1      -0.334  -4.283   2.159  1.00  0.00     0.145 C 
BRANCH  12  13
ATOM     13  C   UNL     1       0.387  -4.434   3.504  1.00  0.00     0.020 C 
ATOM     14  C   UNL     1       0.156  -3.234   4.420  1.00  0.00     0.006 C 
ENDBRANCH  12  13
ENDBRANCH   4  12
ENDBRANCH   1   3
BRANCH   1  15
ATOM     15  C   UNL     1      -1.031   0.869   0.842  1.00  0.00     0.215 C 
BRANCH  15  16
ATOM     16  C   UNL     1      -1.082   2.299   0.410  1.00  0.00     0.245 A 
ATOM     17  N   UNL     1      -1.614   2.715  -0.755  1.00  0.00    -0.195 NA
ATOM     18  O   UNL     1      -0.579   3.294   1.097  1.00  0.00    -0.337 OA
ATOM     19  C   UNL     1      -1.395   4.044  -0.681  1.00  0.00     0.172 A 
ATOM     20  N   UNL     1      -0.751   4.403   0.447  1.00  0.00    -0.062 NA
BRANCH  19  21
ATOM     21  C   UNL     1      -1.747   5.002  -1.772  1.00  0.00     0.084 C 
BRANCH  21  22
ATOM     22  C   UNL     1      -0.608   5.062  -2.795  1.00  0.00    -0.003 C 
ATOM     23  C   UNL     1       0.469   6.100  -2.521  1.00  0.00     0.004 C 
ATOM     24  C   UNL     1      -0.554   6.337  -3.622  1.00  0.00     0.004 C 
ENDBRANCH  21  22
ENDBRANCH  19  21
ENDBRANCH  15  16
ENDBRANCH   1  15
TORSDOF 7
