REMARK SMILES CN1CC[C@@H]2[C@H]1CCCN2C(=O)[C@@H]1CCN(c2ccc(-c3nn[nH]n3)cc2F)C1
REMARK SMILES IDX 13 1 14 2 15 3 16 4 29 5 11 6 12 7 10 8 2 9 3 10 6 11 4 12
REMARK SMILES IDX 5 13 7 14 8 15 9 16 1 17 17 18 18 19 27 20 19 21 26 22 20 23
REMARK SMILES IDX 28 24 21 25 22 26 25 27 23 28 24 29
REMARK H PARENT 24 30
ROOT
ATOM      1  C   UNL     1      -0.335   0.014   0.214  1.00  0.00     0.100 C 
ATOM      2  C   UNL     1      -1.064  -0.703  -0.928  1.00  0.00     0.037 C 
ATOM      3  C   UNL     1       0.025  -1.042  -1.939  1.00  0.00     0.117 C 
ATOM      4  N   UNL     1       1.277  -0.989  -1.192  1.00  0.00    -0.368 N 
ATOM      5  C   UNL     1       1.095  -0.523   0.173  1.00  0.00     0.130 C 
ENDROOT
BRANCH   1   6
ATOM      6  C   UNL     1      -1.008  -0.187   1.548  1.00  0.00     0.227 C 
ATOM      7  O   UNL     1      -1.096  -1.345   2.043  1.00  0.00    -0.274 OA
BRANCH   6   8
ATOM      8  N   UNL     1      -1.606   0.931   2.231  1.00  0.00    -0.338 N 
ATOM      9  N   UNL     1      -4.682   2.277   2.181  1.00  0.00    -0.301 NA
ATOM     10  C   UNL     1      -5.139   0.901   1.947  1.00  0.00     0.086 C 
ATOM     11  C   UNL     1      -3.613   2.111   3.191  1.00  0.00     0.079 C 
ATOM     12  C   UNL     1      -3.922  -0.011   2.070  1.00  0.00     0.042 C 
ATOM     13  C   UNL     1      -2.903   0.766   2.921  1.00  0.00     0.103 C 
ATOM     14  C   UNL     1      -2.697   3.344   3.416  1.00  0.00     0.023 C 
ATOM     15  C   UNL     1      -1.427   3.347   2.560  1.00  0.00     0.023 C 
ATOM     16  C   UNL     1      -0.713   2.009   2.669  1.00  0.00     0.120 C 
ATOM     17  C   UNL     1      -4.219   2.869   0.908  1.00  0.00     0.105 C 
ENDBRANCH   6   8
ENDBRANCH   1   6
BRANCH   4  18
ATOM     18  C   UNL     1       2.538  -1.449  -1.714  1.00  0.00     0.073 A 
ATOM     19  C   UNL     1       3.353  -2.295  -0.944  1.00  0.00     0.030 A 
ATOM     20  C   UNL     1       2.976  -1.058  -2.995  1.00  0.00     0.147 A 
ATOM     21  C   UNL     1       4.577  -2.751  -1.446  1.00  0.00     0.014 A 
ATOM     22  C   UNL     1       4.202  -1.510  -3.491  1.00  0.00     0.053 A 
ATOM     23  C   UNL     1       5.014  -2.361  -2.723  1.00  0.00     0.026 A 
ATOM     24  F   UNL     1       2.235  -0.213  -3.755  1.00  0.00    -0.205 F 
BRANCH  23  25
ATOM     25  C   UNL     1       6.315  -2.824  -3.248  1.00  0.00     0.204 A 
ATOM     26  N   UNL     1       7.087  -3.764  -2.661  1.00  0.00    -0.108 NA
ATOM     27  N   UNL     1       6.896  -2.346  -4.367  1.00  0.00    -0.134 NA
ATOM     28  N   UNL     1       8.154  -3.861  -3.438  1.00  0.00    -0.050 NA
ATOM     29  N   UNL     1       8.034  -3.014  -4.447  1.00  0.00    -0.177 N 
ATOM     30  H   UNL     1       8.741  -2.891  -5.206  1.00  0.00     0.216 HD
ENDBRANCH  23  25
ENDBRANCH   4  18
TORSDOF 4
