REMARK SMILES c1ccc(Nc2nc(OCC3CCCCC3)c3[nH]cnc3n2)cc1
REMARK SMILES IDX 6 1 7 2 8 3 17 4 18 5 19 6 20 7 21 8 22 9 5 11 4 13 1 14
REMARK SMILES IDX 2 15 24 16 3 17 23 18 9 19 10 20 11 21 12 22 16 23 13 24
REMARK SMILES IDX 15 25 14 26
REMARK H PARENT 18 10 5 12
ROOT
ATOM      1  C   UNL     1      -0.941  -0.836   2.883  1.00  0.00     0.232 A 
ATOM      2  N   UNL     1      -0.024  -0.945   1.867  1.00  0.00    -0.175 NA
ATOM      3  C   UNL     1       1.315  -1.061   2.110  1.00  0.00     0.245 A 
ATOM      4  C   UNL     1       1.720  -1.058   3.435  1.00  0.00     0.148 A 
ATOM      5  N   UNL     1       2.945  -1.152   3.962  1.00  0.00    -0.339 N 
ATOM      6  C   UNL     1       2.723  -1.093   5.300  1.00  0.00     0.199 A 
ATOM      7  N   UNL     1       1.409  -0.966   5.633  1.00  0.00    -0.217 NA
ATOM      8  C   UNL     1       0.811  -0.950   4.430  1.00  0.00     0.186 A 
ATOM      9  N   UNL     1      -0.517  -0.833   4.186  1.00  0.00    -0.191 NA
ATOM     10  H   UNL     1       3.859  -1.247   3.466  1.00  0.00     0.168 HD
ENDROOT
BRANCH   1  11
ATOM     11  N   UNL     1      -2.335  -0.662   2.590  1.00  0.00    -0.324 N 
ATOM     12  H   UNL     1      -2.962  -0.388   3.380  1.00  0.00     0.170 HD
BRANCH  11  13
ATOM     13  C   UNL     1      -2.868  -0.624   1.256  1.00  0.00     0.041 A 
ATOM     14  C   UNL     1      -3.936  -0.508  -1.340  1.00  0.00     0.000 A 
ATOM     15  C   UNL     1      -4.392   0.373  -0.356  1.00  0.00     0.002 A 
ATOM     16  C   UNL     1      -2.963  -1.460  -1.028  1.00  0.00     0.002 A 
ATOM     17  C   UNL     1      -3.866   0.311   0.939  1.00  0.00     0.026 A 
ATOM     18  C   UNL     1      -2.437  -1.527   0.266  1.00  0.00     0.026 A 
ENDBRANCH  11  13
ENDBRANCH   1  11
BRANCH   3  19
ATOM     19  O   UNL     1       2.241  -1.179   1.068  1.00  0.00    -0.476 OA
BRANCH  19  20
ATOM     20  C   UNL     1       1.863  -1.249  -0.308  1.00  0.00     0.235 C 
BRANCH  20  21
ATOM     21  C   UNL     1       1.401   0.122  -0.839  1.00  0.00     0.027 C 
ATOM     22  C   UNL     1       0.829  -0.014  -2.273  1.00  0.00     0.007 C 
ATOM     23  C   UNL     1       2.543   1.154  -0.799  1.00  0.00     0.007 C 
ATOM     24  C   UNL     1       0.882   1.298  -3.084  1.00  0.00     0.000 C 
ATOM     25  C   UNL     1       2.055   2.558  -1.214  1.00  0.00     0.000 C 
ATOM     26  C   UNL     1       0.852   2.533  -2.178  1.00  0.00     0.000 C 
ENDBRANCH  20  21
ENDBRANCH  19  20
ENDBRANCH   3  19
TORSDOF 5
