REMARK SMILES CO[C@]1(c2nnc3n2CCN(C(=O)OC(C)(C)C)C3)CCOC1
REMARK SMILES IDX 4 1 5 2 6 3 7 4 19 5 11 6 10 7 9 8 8 9 3 10 20 11 23 12
REMARK SMILES IDX 21 13 22 14 2 15 1 16 12 17 13 18 14 19 15 20 16 21 17 22
REMARK SMILES IDX 18 23
REMARK H PARENT
ROOT
ATOM      1  C   UNL     1       2.426   0.454  -0.338  1.00  0.00     0.167 A 
ATOM      2  N   UNL     1       2.438   1.733   0.099  1.00  0.00    -0.132 NA
ATOM      3  N   UNL     1       1.203   2.203  -0.008  1.00  0.00    -0.133 NA
ATOM      4  C   UNL     1       0.454   1.201  -0.502  1.00  0.00     0.152 A 
ATOM      5  C   UNL     1      -1.022   1.271  -0.736  1.00  0.00     0.200 C 
ATOM      6  N   UNL     1      -1.557  -0.036  -1.163  1.00  0.00    -0.299 N 
ATOM      7  C   UNL     1      -0.687  -0.987  -1.881  1.00  0.00     0.145 C 
ATOM      8  C   UNL     1       0.633  -1.193  -1.129  1.00  0.00     0.147 C 
ATOM      9  N   UNL     1       1.184   0.101  -0.737  1.00  0.00    -0.309 N 
ENDROOT
BRANCH   1  10
ATOM     10  C   UNL     1       3.646  -0.468  -0.297  1.00  0.00     0.153 C 
ATOM     11  C   UNL     1       4.019  -0.919  -1.695  1.00  0.00     0.075 C 
ATOM     12  C   UNL     1       4.943   0.249   0.106  1.00  0.00     0.204 C 
ATOM     13  C   UNL     1       5.535  -1.024  -1.663  1.00  0.00     0.164 C 
ATOM     14  O   UNL     1       6.026  -0.417  -0.492  1.00  0.00    -0.378 OA
BRANCH  10  15
ATOM     15  O   UNL     1       3.439  -1.630   0.504  1.00  0.00    -0.368 OA
ATOM     16  C   UNL     1       2.897  -1.343   1.782  1.00  0.00     0.196 C 
ENDBRANCH  10  15
ENDBRANCH   1  10
BRANCH   6  17
ATOM     17  C   UNL     1      -2.983  -0.248  -1.139  1.00  0.00     0.410 C 
ATOM     18  O   UNL     1      -3.737   0.625  -0.628  1.00  0.00    -0.224 OA
BRANCH  17  19
ATOM     19  O   UNL     1      -3.523  -1.423  -1.685  1.00  0.00    -0.444 OA
BRANCH  19  20
ATOM     20  C   UNL     1      -4.913  -1.779  -1.738  1.00  0.00     0.106 C 
ATOM     21  C   UNL     1      -5.705  -0.753  -2.571  1.00  0.00     0.056 C 
ATOM     22  C   UNL     1      -5.003  -3.151  -2.425  1.00  0.00     0.056 C 
ATOM     23  C   UNL     1      -5.498  -1.895  -0.317  1.00  0.00     0.056 C 
ENDBRANCH  19  20
ENDBRANCH  17  19
ENDBRANCH   6  17
TORSDOF 5
