REMARK SMILES C[C@H]1CCCCN1CCC1CCN(c2ncnc3[nH]ncc23)CC1
REMARK SMILES IDX 9 1 8 2 7 3 2 4 3 5 4 6 6 7 5 8 1 9 10 10 11 11 24 12 12 13
REMARK SMILES IDX 23 14 13 15 14 16 15 17 22 18 16 19 21 20 18 21 17 22 20 23
REMARK SMILES IDX 19 24
REMARK H PARENT 19 25
ROOT
ATOM      1  C   UNL     1       0.599  -3.306  -0.354  1.00  0.00     0.019 C 
ENDROOT
BRANCH   1   2
ATOM      2  C   UNL     1       0.487  -3.006   1.155  1.00  0.00     0.085 C 
BRANCH   2   3
ATOM      3  N   UNL     1      -0.748  -2.239   1.471  1.00  0.00    -0.301 NA
ATOM      4  C   UNL     1      -1.823  -3.030   2.123  1.00  0.00     0.053 C 
ATOM      5  C   UNL     1      -1.411  -3.527   3.532  1.00  0.00     0.019 C 
ATOM      6  C   UNL     1      -0.398  -2.590   4.210  1.00  0.00     0.003 C 
ATOM      7  C   UNL     1      -0.484  -0.985   2.222  1.00  0.00     0.085 C 
ATOM      8  C   UNL     1      -0.583  -1.139   3.759  1.00  0.00     0.016 C 
ATOM      9  C   UNL     1      -2.328  -4.174   1.234  1.00  0.00     0.024 C 
ENDBRANCH   2   3
ENDBRANCH   1   2
BRANCH   1  10
ATOM     10  C   UNL     1       0.802  -2.093  -1.298  1.00  0.00    -0.006 C 
ATOM     11  C   UNL     1      -0.494  -1.264  -1.534  1.00  0.00     0.025 C 
ATOM     12  C   UNL     1       2.020  -1.226  -0.919  1.00  0.00     0.025 C 
ATOM     13  C   UNL     1      -0.293   0.249  -1.371  1.00  0.00     0.118 C 
ATOM     14  C   UNL     1       2.179  -0.072  -1.915  1.00  0.00     0.118 C 
ATOM     15  N   UNL     1       0.929   0.688  -2.062  1.00  0.00    -0.356 N 
BRANCH  15  16
ATOM     16  C   UNL     1       0.932   1.866  -2.889  1.00  0.00     0.143 A 
ATOM     17  N   UNL     1       1.618   1.871  -4.073  1.00  0.00    -0.219 NA
ATOM     18  C   UNL     1       0.281   3.047  -2.527  1.00  0.00     0.081 A 
ATOM     19  C   UNL     1       1.653   2.977  -4.883  1.00  0.00     0.226 A 
ATOM     20  C   UNL     1      -0.431   3.473  -1.421  1.00  0.00     0.149 A 
ATOM     21  C   UNL     1       0.331   4.128  -3.346  1.00  0.00     0.160 A 
ATOM     22  N   UNL     1       1.006   4.124  -4.520  1.00  0.00    -0.217 NA
ATOM     23  N   UNL     1      -0.786   4.768  -1.616  1.00  0.00    -0.181 NA
ATOM     24  N   UNL     1      -0.318   5.162  -2.795  1.00  0.00    -0.261 N 
ATOM     25  H   UNL     1      -0.432   6.120  -3.194  1.00  0.00     0.192 HD
ENDBRANCH  15  16
ENDBRANCH   1  10
TORSDOF 4
