REMARK SMILES CN1CCC2(CCN(C(=O)c3ccc4cccnn34)CC2)C1=O
REMARK SMILES IDX 1 1 2 2 3 3 4 4 5 5 6 6 7 7 8 8 20 9 21 10 9 11 10 12 22 13
REMARK SMILES IDX 23 14 11 15 12 16 19 17 13 18 18 19 14 20 17 21 15 22 16 23
REMARK H PARENT
ROOT
ATOM      1  C   UNL     1       3.358   2.867   1.598  1.00  0.00     0.146 C 
ATOM      2  N   UNL     1       2.448   1.970   0.896  1.00  0.00    -0.345 N 
ATOM      3  C   UNL     1       1.624   0.962   1.536  1.00  0.00     0.120 C 
ATOM      4  C   UNL     1       0.919   0.217   0.389  1.00  0.00     0.038 C 
ATOM      5  C   UNL     1       1.044   1.113  -0.882  1.00  0.00     0.054 C 
ATOM      6  C   UNL     1      -0.275   1.897  -1.161  1.00  0.00     0.038 C 
ATOM      7  C   UNL     1      -1.185   1.203  -2.191  1.00  0.00     0.121 C 
ATOM      8  N   UNL     1      -0.959  -0.247  -2.195  1.00  0.00    -0.337 N 
ATOM      9  C   UNL     1       0.393  -0.744  -2.501  1.00  0.00     0.121 C 
ATOM     10  C   UNL     1       1.470   0.290  -2.123  1.00  0.00     0.038 C 
ATOM     11  C   UNL     1      -1.965  -1.137  -1.671  1.00  0.00     0.272 C 
ATOM     12  O   UNL     1      -2.740  -0.732  -0.762  1.00  0.00    -0.267 OA
ATOM     13  C   UNL     1       2.121   2.061  -0.476  1.00  0.00     0.228 C 
ATOM     14  O   UNL     1       2.667   2.889  -1.255  1.00  0.00    -0.274 OA
ENDROOT
BRANCH  11  15
ATOM     15  C   UNL     1      -2.108  -2.521  -2.168  1.00  0.00     0.130 A 
ATOM     16  C   UNL     1      -1.724  -2.996  -3.420  1.00  0.00     0.036 A 
ATOM     17  N   UNL     1      -2.689  -3.528  -1.490  1.00  0.00    -0.228 N 
ATOM     18  C   UNL     1      -2.081  -4.340  -3.478  1.00  0.00     0.031 A 
ATOM     19  N   UNL     1      -3.200  -3.509  -0.259  1.00  0.00    -0.176 NA
ATOM     20  C   UNL     1      -2.672  -4.622  -2.264  1.00  0.00     0.066 A 
ATOM     21  C   UNL     1      -3.742  -4.649   0.257  1.00  0.00     0.134 A 
ATOM     22  C   UNL     1      -3.209  -5.819  -1.805  1.00  0.00     0.030 A 
ATOM     23  C   UNL     1      -3.755  -5.827  -0.513  1.00  0.00     0.024 A 
ENDBRANCH  11  15
TORSDOF 1
