REMARK SMILES CC1(C)NC(=O)C[C@H]1C(=O)N1CCC[C@]1(C)c1ccccc1
REMARK SMILES IDX 9 1 10 2 8 3 2 4 4 5 5 6 7 7 6 8 1 9 3 10 11 12 12 13 15 14
REMARK SMILES IDX 13 15 14 16 16 17 17 18 18 19 22 20 19 21 21 22 20 23
REMARK H PARENT 4 11
ROOT
ATOM      1  C   UNL     1      -0.628   0.469   0.903  1.00  0.00     0.229 C 
ATOM      2  O   UNL     1      -0.866  -0.471   1.710  1.00  0.00    -0.274 OA
ENDROOT
BRANCH   1   3
ATOM      3  C   UNL     1      -1.797   1.162   0.218  1.00  0.00     0.113 C 
ATOM      4  C   UNL     1      -2.520   0.275  -0.866  1.00  0.00     0.046 C 
ATOM      5  N   UNL     1      -3.729  -0.200  -0.210  1.00  0.00    -0.350 N 
ATOM      6  C   UNL     1      -3.948   0.530   0.977  1.00  0.00     0.221 C 
ATOM      7  C   UNL     1      -2.887   1.519   1.256  1.00  0.00     0.116 C 
ATOM      8  O   UNL     1      -4.971   0.373   1.694  1.00  0.00    -0.275 OA
ATOM      9  C   UNL     1      -1.702  -0.929  -1.373  1.00  0.00     0.035 C 
ATOM     10  C   UNL     1      -2.926   1.146  -2.070  1.00  0.00     0.035 C 
ATOM     11  H   UNL     1      -4.425  -0.852  -0.636  1.00  0.00     0.164 HD
ENDBRANCH   1   3
BRANCH   1  12
ATOM     12  N   UNL     1       0.742   0.843   0.629  1.00  0.00    -0.333 N 
ATOM     13  C   UNL     1       1.133   1.708  -0.474  1.00  0.00     0.120 C 
ATOM     14  C   UNL     1       1.894   0.355   1.399  1.00  0.00     0.065 C 
ATOM     15  C   UNL     1       2.645   1.589  -0.581  1.00  0.00     0.024 C 
ATOM     16  C   UNL     1       3.112   1.069   0.773  1.00  0.00     0.035 C 
ATOM     17  C   UNL     1       1.733   0.795   2.874  1.00  0.00     0.040 C 
BRANCH  14  18
ATOM     18  C   UNL     1       2.047  -1.166   1.236  1.00  0.00    -0.023 A 
ATOM     19  C   UNL     1       2.583  -1.975   2.264  1.00  0.00     0.006 A 
ATOM     20  C   UNL     1       1.747  -1.778  -0.001  1.00  0.00     0.006 A 
ATOM     21  C   UNL     1       2.748  -3.351   2.077  1.00  0.00     0.000 A 
ATOM     22  C   UNL     1       1.914  -3.153  -0.180  1.00  0.00     0.000 A 
ATOM     23  C   UNL     1       2.408  -3.940   0.859  1.00  0.00     0.000 A 
ENDBRANCH  14  18
ENDBRANCH   1  12
TORSDOF 3
