REMARK SMILES O=C(Nc1cccc(-c2[nH]nc3c2COCC3)c1)c1cncc(O)c1
REMARK SMILES IDX 1 1 2 2 3 3 19 5 20 6 25 7 21 8 23 9 22 10 24 11 4 13 5 14
REMARK SMILES IDX 18 15 6 16 8 17 7 18 9 19 10 20 13 21 11 22 14 23 12 24
REMARK SMILES IDX 15 25 17 26 16 27
REMARK H PARENT 3 4 24 12 10 28
ROOT
ATOM      1  O   UNL     1       2.833   0.594   2.080  1.00  0.00    -0.269 OA
ATOM      2  C   UNL     1       3.001  -0.619   1.775  1.00  0.00     0.257 C 
ATOM      3  N   UNL     1       1.874  -1.512   1.763  1.00  0.00    -0.322 N 
ATOM      4  H   UNL     1       2.044  -2.520   1.979  1.00  0.00     0.170 HD
ENDROOT
BRANCH   2   5
ATOM      5  C   UNL     1       4.367  -1.115   1.483  1.00  0.00     0.062 A 
ATOM      6  C   UNL     1       5.495  -0.368   1.869  1.00  0.00     0.125 A 
ATOM      7  C   UNL     1       4.573  -2.325   0.797  1.00  0.00     0.063 A 
ATOM      8  N   UNL     1       6.747  -0.822   1.595  1.00  0.00    -0.260 NA
ATOM      9  C   UNL     1       5.873  -2.768   0.526  1.00  0.00     0.134 A 
ATOM     10  C   UNL     1       6.957  -1.994   0.941  1.00  0.00     0.157 A 
BRANCH   9  11
ATOM     11  O   UNL     1       6.095  -3.965  -0.152  1.00  0.00    -0.506 OA
ATOM     12  H   UNL     1       5.326  -4.546  -0.465  1.00  0.00     0.293 HD
ENDBRANCH   9  11
ENDBRANCH   2   5
BRANCH   3  13
ATOM     13  C   UNL     1       0.511  -1.074   1.627  1.00  0.00     0.042 A 
ATOM     14  C   UNL     1      -0.515  -1.824   2.220  1.00  0.00     0.026 A 
ATOM     15  C   UNL     1       0.178   0.060   0.863  1.00  0.00     0.036 A 
ATOM     16  C   UNL     1      -1.847  -1.427   2.087  1.00  0.00     0.003 A 
ATOM     17  C   UNL     1      -1.162   0.460   0.717  1.00  0.00     0.002 A 
ATOM     18  C   UNL     1      -2.170  -0.288   1.347  1.00  0.00     0.010 A 
BRANCH  17  19
ATOM     19  C   UNL     1      -1.491   1.663  -0.080  1.00  0.00     0.071 A 
ATOM     20  N   UNL     1      -0.694   2.752  -0.186  1.00  0.00    -0.277 N 
ATOM     21  C   UNL     1      -2.607   1.885  -0.867  1.00  0.00     0.027 A 
ATOM     22  N   UNL     1      -1.255   3.649  -0.988  1.00  0.00    -0.180 NA
ATOM     23  C   UNL     1      -3.814   1.058  -1.194  1.00  0.00     0.200 C 
ATOM     24  C   UNL     1      -2.430   3.132  -1.392  1.00  0.00     0.071 A 
ATOM     25  O   UNL     1      -4.395   1.490  -2.420  1.00  0.00    -0.376 OA
ATOM     26  C   UNL     1      -3.377   3.723  -2.382  1.00  0.00     0.087 C 
ATOM     27  C   UNL     1      -4.676   2.887  -2.387  1.00  0.00     0.167 C 
ATOM     28  H   UNL     1       0.225   2.895   0.287  1.00  0.00     0.190 HD
ENDBRANCH  17  19
ENDBRANCH   3  13
TORSDOF 4
