REMARK SMILES COC(=O)[C@@H]1Cc2ccccc2CN1C(=O)[C@H]1CC12CCOCC2
REMARK SMILES IDX 5 1 6 2 7 3 8 4 9 5 10 6 11 7 12 8 13 9 14 10 3 11 4 12 2 13
REMARK SMILES IDX 1 14 15 15 16 16 17 17 18 18 19 19 20 20 24 21 21 22 23 23
REMARK SMILES IDX 22 24
REMARK H PARENT
ROOT
ATOM      1  C   UNL     1      -1.177   0.244  -0.210  1.00  0.00     0.199 C 
ATOM      2  C   UNL     1      -1.709   1.393   0.654  1.00  0.00     0.073 C 
ATOM      3  C   UNL     1      -2.248   2.503  -0.195  1.00  0.00    -0.040 A 
ATOM      4  C   UNL     1      -3.340   3.268   0.247  1.00  0.00     0.004 A 
ATOM      5  C   UNL     1      -3.818   4.325  -0.531  1.00  0.00     0.000 A 
ATOM      6  C   UNL     1      -3.201   4.634  -1.745  1.00  0.00     0.000 A 
ATOM      7  C   UNL     1      -2.105   3.887  -2.183  1.00  0.00     0.006 A 
ATOM      8  C   UNL     1      -1.624   2.813  -1.416  1.00  0.00    -0.025 A 
ATOM      9  C   UNL     1      -0.413   2.047  -1.892  1.00  0.00     0.156 C 
ATOM     10  N   UNL     1      -0.232   0.736  -1.235  1.00  0.00    -0.324 N 
ENDROOT
BRANCH   1  11
ATOM     11  C   UNL     1      -2.296  -0.529  -0.852  1.00  0.00     0.328 C 
ATOM     12  O   UNL     1      -2.836  -0.107  -1.912  1.00  0.00    -0.250 OA
BRANCH  11  13
ATOM     13  O   UNL     1      -2.749  -1.704  -0.245  1.00  0.00    -0.467 OA
ATOM     14  C   UNL     1      -3.807  -2.486  -0.786  1.00  0.00     0.282 C 
ENDBRANCH  11  13
ENDBRANCH   1  11
BRANCH  10  15
ATOM     15  C   UNL     1       0.833  -0.117  -1.719  1.00  0.00     0.227 C 
ATOM     16  O   UNL     1       1.502   0.229  -2.731  1.00  0.00    -0.275 OA
BRANCH  15  17
ATOM     17  C   UNL     1       1.135  -1.444  -1.070  1.00  0.00     0.085 C 
ATOM     18  C   UNL     1       2.610  -1.864  -1.070  1.00  0.00     0.022 C 
ATOM     19  C   UNL     1       1.950  -1.399   0.225  1.00  0.00    -0.013 C 
ATOM     20  C   UNL     1       2.434  -0.050   0.782  1.00  0.00     0.036 C 
ATOM     21  C   UNL     1       1.643  -2.484   1.261  1.00  0.00     0.036 C 
ATOM     22  C   UNL     1       3.453  -0.311   1.895  1.00  0.00     0.160 C 
ATOM     23  C   UNL     1       2.745  -2.484   2.325  1.00  0.00     0.160 C 
ATOM     24  O   UNL     1       2.924  -1.189   2.874  1.00  0.00    -0.381 OA
ENDBRANCH  15  17
ENDBRANCH  10  15
TORSDOF 4
