REMARK SMILES c1ccc2c(c1)OCC[C@H]2Nc1nnc(-c2ccc3ccccc3n2)o1
REMARK SMILES IDX 15 1 14 2 13 3 12 4 26 5 16 6 21 7 22 8 20 9 23 10 19 11
REMARK SMILES IDX 24 12 18 13 25 14 17 15 11 16 10 18 9 19 4 20 8 21 3 22 5 23
REMARK SMILES IDX 7 24 2 25 6 26 1 27
REMARK H PARENT 11 17
ROOT
ATOM      1  C   UNL     1       0.139  -0.586  -1.683  1.00  0.00     0.268 A 
ATOM      2  N   UNL     1       0.486  -0.044  -2.868  1.00  0.00    -0.104 NA
ATOM      3  N   UNL     1       0.272   1.259  -2.761  1.00  0.00    -0.090 NA
ATOM      4  C   UNL     1      -0.196   1.454  -1.515  1.00  0.00     0.316 A 
ATOM      5  O   UNL     1      -0.282   0.331  -0.845  1.00  0.00    -0.402 OA
ENDROOT
BRANCH   1   6
ATOM      6  C   UNL     1       0.227  -2.022  -1.376  1.00  0.00     0.128 A 
ATOM      7  C   UNL     1       0.987  -6.976  -1.614  1.00  0.00     0.001 A 
ATOM      8  C   UNL     1       1.357  -6.450  -2.857  1.00  0.00     0.002 A 
ATOM      9  C   UNL     1       0.514  -6.130  -0.605  1.00  0.00     0.010 A 
ATOM     10  C   UNL     1       1.254  -5.076  -3.099  1.00  0.00     0.029 A 
ATOM     11  C   UNL     1       0.410  -4.750  -0.839  1.00  0.00     0.000 A 
ATOM     12  C   UNL     1       0.783  -4.222  -2.095  1.00  0.00     0.071 A 
ATOM     13  C   UNL     1      -0.060  -3.877   0.150  1.00  0.00     0.013 A 
ATOM     14  N   UNL     1       0.681  -2.885  -2.326  1.00  0.00    -0.243 NA
ATOM     15  C   UNL     1      -0.151  -2.510  -0.116  1.00  0.00     0.035 A 
ENDBRANCH   1   6
BRANCH   4  16
ATOM     16  N   UNL     1      -0.548   2.739  -0.994  1.00  0.00    -0.331 N 
ATOM     17  H   UNL     1      -0.500   3.565  -1.633  1.00  0.00     0.166 HD
BRANCH  16  18
ATOM     18  C   UNL     1      -1.141   2.902   0.336  1.00  0.00     0.121 C 
ATOM     19  C   UNL     1      -2.670   3.021   0.191  1.00  0.00     0.071 C 
ATOM     20  C   UNL     1      -0.550   4.111   1.039  1.00  0.00     0.017 A 
ATOM     21  C   UNL     1      -3.304   3.422   1.522  1.00  0.00     0.232 C 
ATOM     22  C   UNL     1       0.829   4.384   0.968  1.00  0.00     0.010 A 
ATOM     23  C   UNL     1      -1.369   4.924   1.851  1.00  0.00     0.124 A 
ATOM     24  O   UNL     1      -2.733   4.643   1.990  1.00  0.00    -0.493 OA
ATOM     25  C   UNL     1       1.366   5.485   1.640  1.00  0.00     0.001 A 
ATOM     26  C   UNL     1      -0.824   6.029   2.515  1.00  0.00     0.047 A 
ATOM     27  C   UNL     1       0.540   6.310   2.408  1.00  0.00     0.004 A 
ENDBRANCH  16  18
ENDBRANCH   4  16
TORSDOF 3
