REMARK SMILES O=C(NC[C@H]1NCC[C@@H]1C1CC1)c1ccc(N2CCCS2(=O)=O)cc1Cl
REMARK SMILES IDX 1 1 2 2 3 3 13 5 14 6 25 7 15 8 24 9 16 10 26 11 17 12 18 13
REMARK SMILES IDX 21 14 19 15 20 16 22 17 23 18 4 19 5 20 6 21 9 22 7 23 8 24
REMARK SMILES IDX 10 26 11 27 12 28
REMARK H PARENT 3 4 6 25
ROOT
ATOM      1  O   UNL     1      -2.301  -1.788   1.383  1.00  0.00    -0.269 OA
ATOM      2  C   UNL     1      -1.795  -1.042   0.502  1.00  0.00     0.252 C 
ATOM      3  N   UNL     1      -1.878   0.385   0.633  1.00  0.00    -0.350 N 
ATOM      4  H   UNL     1      -1.612   0.984  -0.180  1.00  0.00     0.163 HD
ENDROOT
BRANCH   2   5
ATOM      5  C   UNL     1      -1.165  -1.654  -0.687  1.00  0.00     0.058 A 
ATOM      6  C   UNL     1      -1.819  -2.716  -1.329  1.00  0.00     0.017 A 
ATOM      7  C   UNL     1       0.081  -1.216  -1.184  1.00  0.00     0.055 A 
ATOM      8  C   UNL     1      -1.267  -3.310  -2.465  1.00  0.00     0.028 A 
ATOM      9  C   UNL     1       0.629  -1.817  -2.323  1.00  0.00     0.048 A 
ATOM     10  C   UNL     1      -0.040  -2.863  -2.986  1.00  0.00     0.053 A 
ATOM     11  Cl  UNL     1       1.032   0.021  -0.368  1.00  0.00    -0.083 Cl
BRANCH  10  12
ATOM     12  N   UNL     1       0.534  -3.483  -4.160  1.00  0.00    -0.270 N 
ATOM     13  C   UNL     1      -0.012  -4.670  -4.816  1.00  0.00     0.136 C 
ATOM     14  S   UNL     1       1.810  -2.800  -5.086  1.00  0.00     0.235 S 
ATOM     15  C   UNL     1       0.948  -5.105  -5.945  1.00  0.00     0.041 C 
ATOM     16  C   UNL     1       1.728  -3.893  -6.463  1.00  0.00     0.162 C 
ATOM     17  O   UNL     1       3.126  -2.910  -4.370  1.00  0.00    -0.206 OA
ATOM     18  O   UNL     1       1.510  -1.382  -5.485  1.00  0.00    -0.206 OA
ENDBRANCH  10  12
ENDBRANCH   2   5
BRANCH   3  19
ATOM     19  C   UNL     1      -2.272   1.054   1.874  1.00  0.00     0.135 C 
BRANCH  19  20
ATOM     20  C   UNL     1      -1.051   1.714   2.546  1.00  0.00     0.076 C 
ATOM     21  N   UNL     1      -1.522   2.582   3.627  1.00  0.00    -0.312 NA
ATOM     22  C   UNL     1      -0.108   0.678   3.185  1.00  0.00     0.012 C 
ATOM     23  C   UNL     1      -1.435   1.808   4.872  1.00  0.00     0.081 C 
ATOM     24  C   UNL     1      -0.630   0.538   4.609  1.00  0.00     0.021 C 
ATOM     25  H   UNL     1      -0.869   3.398   3.701  1.00  0.00     0.123 HD
BRANCH  22  26
ATOM     26  C   UNL     1       1.426   0.973   3.116  1.00  0.00    -0.006 C 
ATOM     27  C   UNL     1       2.006   1.962   4.126  1.00  0.00     0.004 C 
ATOM     28  C   UNL     1       1.955   2.335   2.658  1.00  0.00     0.004 C 
ENDBRANCH  22  26
ENDBRANCH  19  20
ENDBRANCH   3  19
TORSDOF 5
