REMARK SMILES CN1CCC[C@@H](N2CCN(C(=O)Cc3csc(-c4cccs4)n3)CC2)C1
REMARK SMILES IDX 7 1 8 2 9 3 10 4 24 5 25 6 11 7 12 8 6 9 2 10 3 11 26 12
REMARK SMILES IDX 4 13 5 14 1 15 13 16 14 17 15 18 23 19 16 20 17 21 18 22
REMARK SMILES IDX 19 23 22 24 20 25 21 26
REMARK H PARENT
ROOT
ATOM      1  N   UNL     1      -0.590   2.590  -0.683  1.00  0.00    -0.296 NA
ATOM      2  C   UNL     1       0.817   2.601  -0.225  1.00  0.00     0.106 C 
ATOM      3  C   UNL     1       1.767   1.759  -1.106  1.00  0.00     0.135 C 
ATOM      4  N   UNL     1       1.050   0.785  -1.945  1.00  0.00    -0.340 N 
ATOM      5  C   UNL     1      -0.145   1.208  -2.695  1.00  0.00     0.135 C 
ATOM      6  C   UNL     1      -0.719   2.516  -2.148  1.00  0.00     0.106 C 
ATOM      7  C   UNL     1       1.693  -0.467  -2.266  1.00  0.00     0.228 C 
ATOM      8  O   UNL     1       2.949  -0.561  -2.175  1.00  0.00    -0.274 OA
ENDROOT
BRANCH   1   9
ATOM      9  C   UNL     1      -1.560   1.765   0.091  1.00  0.00     0.071 C 
ATOM     10  N   UNL     1      -2.115  -0.384   1.202  1.00  0.00    -0.305 NA
ATOM     11  C   UNL     1      -2.439   0.309   2.465  1.00  0.00     0.084 C 
ATOM     12  C   UNL     1      -1.061   0.344   0.468  1.00  0.00     0.103 C 
ATOM     13  C   UNL     1      -2.989   1.709   2.175  1.00  0.00     0.017 C 
ATOM     14  C   UNL     1      -1.981   2.524   1.360  1.00  0.00     0.022 C 
ATOM     15  C   UNL     1      -1.671  -1.758   1.486  1.00  0.00     0.105 C 
ENDBRANCH   1   9
BRANCH   7  16
ATOM     16  C   UNL     1       0.905  -1.653  -2.761  1.00  0.00     0.157 C 
BRANCH  16  17
ATOM     17  C   UNL     1       1.493  -2.940  -2.266  1.00  0.00     0.061 A 
ATOM     18  C   UNL     1       2.385  -3.709  -3.011  1.00  0.00     0.091 A 
ATOM     19  N   UNL     1       1.227  -3.411  -1.017  1.00  0.00    -0.240 NA
ATOM     20  S   UNL     1       2.835  -5.026  -2.069  1.00  0.00    -0.121 S 
ATOM     21  C   UNL     1       1.888  -4.561  -0.759  1.00  0.00     0.133 A 
BRANCH  21  22
ATOM     22  C   UNL     1       1.783  -5.288   0.512  1.00  0.00     0.063 A 
ATOM     23  C   UNL     1       1.007  -4.911   1.601  1.00  0.00     0.023 A 
ATOM     24  S   UNL     1       2.583  -6.718   0.895  1.00  0.00    -0.141 S 
ATOM     25  C   UNL     1       1.102  -5.798   2.680  1.00  0.00     0.012 A 
ATOM     26  C   UNL     1       1.951  -6.872   2.446  1.00  0.00     0.065 A 
ENDBRANCH  21  22
ENDBRANCH  16  17
ENDBRANCH   7  16
TORSDOF 4
