REMARK SMILES C[C@@H]1OCC[C@]1(C)NC(=O)C1CCN(c2ccc(C#N)cc2F)CC1
REMARK SMILES IDX 11 1 12 2 13 3 14 4 24 5 25 6 9 7 8 8 10 9 6 11 2 12 3 13
REMARK SMILES IDX 4 14 5 15 1 16 7 17 15 18 16 19 22 20 17 21 21 22 18 23
REMARK SMILES IDX 19 24 20 25 23 26
REMARK H PARENT 8 10
ROOT
ATOM      1  C   UNL     1      -0.175  -0.662  -0.149  1.00  0.00     0.082 C 
ATOM      2  C   UNL     1      -1.061  -0.719  -1.406  1.00  0.00     0.035 C 
ATOM      3  C   UNL     1      -0.454  -1.680  -2.438  1.00  0.00     0.117 C 
ATOM      4  N   UNL     1       1.005  -1.527  -2.525  1.00  0.00    -0.369 N 
ATOM      5  C   UNL     1       1.653  -0.343  -1.945  1.00  0.00     0.117 C 
ATOM      6  C   UNL     1       1.256  -0.159  -0.469  1.00  0.00     0.035 C 
ENDROOT
BRANCH   1   7
ATOM      7  C   UNL     1      -0.814   0.193   0.919  1.00  0.00     0.223 C 
ATOM      8  N   UNL     1      -1.005  -0.335   2.248  1.00  0.00    -0.348 N 
ATOM      9  O   UNL     1      -1.160   1.371   0.633  1.00  0.00    -0.275 OA
ATOM     10  H   UNL     1      -0.713  -1.331   2.393  1.00  0.00     0.164 HD
BRANCH   8  11
ATOM     11  C   UNL     1      -1.584   0.375   3.415  1.00  0.00     0.065 C 
ATOM     12  C   UNL     1      -3.134   0.521   3.344  1.00  0.00     0.140 C 
ATOM     13  O   UNL     1      -3.471   1.868   3.595  1.00  0.00    -0.376 OA
ATOM     14  C   UNL     1      -2.343   2.646   3.276  1.00  0.00     0.163 C 
ATOM     15  C   UNL     1      -1.096   1.819   3.528  1.00  0.00     0.059 C 
ATOM     16  C   UNL     1      -3.798   0.066   2.036  1.00  0.00     0.041 C 
ATOM     17  C   UNL     1      -1.189  -0.395   4.698  1.00  0.00     0.037 C 
ENDBRANCH   8  11
ENDBRANCH   1   7
BRANCH   4  18
ATOM     18  C   UNL     1       1.782  -2.494  -3.254  1.00  0.00     0.073 A 
ATOM     19  C   UNL     1       1.464  -2.796  -4.588  1.00  0.00     0.030 A 
ATOM     20  C   UNL     1       2.871  -3.140  -2.643  1.00  0.00     0.147 A 
ATOM     21  C   UNL     1       2.232  -3.718  -5.305  1.00  0.00     0.022 A 
ATOM     22  C   UNL     1       3.638  -4.062  -3.364  1.00  0.00     0.061 A 
ATOM     23  C   UNL     1       3.321  -4.352  -4.695  1.00  0.00     0.055 A 
ATOM     24  C   UNL     1       4.119  -5.293  -5.435  1.00  0.00     0.099 C 
ATOM     25  N   UNL     1       4.765  -6.050  -6.029  1.00  0.00    -0.192 NA
ATOM     26  F   UNL     1       3.185  -2.885  -1.348  1.00  0.00    -0.205 F 
ENDBRANCH   4  18
TORSDOF 3
