REMARK SMILES Cc1nc(N2CC[C@H](CO)C2)c2cnn(-c3ccccc3)c2n1
REMARK SMILES IDX 5 1 6 2 7 3 8 4 11 5 4 6 2 7 3 8 23 9 22 10 12 11 15 12
REMARK SMILES IDX 13 13 14 14 1 15 16 16 17 17 21 18 18 19 20 20 19 21 9 22
REMARK SMILES IDX 10 23
REMARK H PARENT 10 24
ROOT
ATOM      1  N   UNL     1      -2.116   0.175  -2.203  1.00  0.00    -0.356 N 
ATOM      2  C   UNL     1      -3.261   1.070  -2.124  1.00  0.00     0.118 C 
ATOM      3  C   UNL     1      -4.029   0.878  -3.424  1.00  0.00     0.029 C 
ATOM      4  C   UNL     1      -3.021   0.265  -4.397  1.00  0.00     0.036 C 
ATOM      5  C   UNL     1      -1.993  -0.443  -3.513  1.00  0.00     0.124 C 
ENDROOT
BRANCH   1   6
ATOM      6  C   UNL     1      -1.188   0.027  -1.108  1.00  0.00     0.143 A 
ATOM      7  C   UNL     1      -0.433   0.786   1.039  1.00  0.00     0.130 A 
ATOM      8  N   UNL     1      -1.290   0.860  -0.027  1.00  0.00    -0.215 NA
ATOM      9  N   UNL     1       0.548  -0.161   1.067  1.00  0.00    -0.213 NA
ATOM     10  C   UNL     1       0.654  -1.011   0.018  1.00  0.00     0.168 A 
ATOM     11  C   UNL     1      -0.169  -0.938  -1.068  1.00  0.00     0.082 A 
ATOM     12  N   UNL     1       1.563  -1.990  -0.148  1.00  0.00    -0.215 N 
ATOM     13  C   UNL     1       0.286  -1.937  -1.915  1.00  0.00     0.150 A 
ATOM     14  N   UNL     1       1.343  -2.552  -1.332  1.00  0.00    -0.174 NA
ATOM     15  C   UNL     1      -0.611   1.706   2.200  1.00  0.00     0.090 C 
BRANCH  12  16
ATOM     16  C   UNL     1       2.623  -2.388   0.741  1.00  0.00     0.067 A 
ATOM     17  C   UNL     1       2.483  -2.285   2.138  1.00  0.00     0.028 A 
ATOM     18  C   UNL     1       3.812  -2.924   0.214  1.00  0.00     0.028 A 
ATOM     19  C   UNL     1       3.521  -2.687   2.984  1.00  0.00     0.002 A 
ATOM     20  C   UNL     1       4.848  -3.323   1.064  1.00  0.00     0.002 A 
ATOM     21  C   UNL     1       4.704  -3.202   2.448  1.00  0.00     0.000 A 
ENDBRANCH  12  16
ENDBRANCH   1   6
BRANCH   4  22
ATOM     22  C   UNL     1      -3.684  -0.671  -5.418  1.00  0.00     0.161 C 
BRANCH  22  23
ATOM     23  O   UNL     1      -2.719  -1.160  -6.308  1.00  0.00    -0.396 OA
ATOM     24  H   UNL     1      -3.203  -1.756  -6.937  1.00  0.00     0.210 HD
ENDBRANCH  22  23
ENDBRANCH   4  22
TORSDOF 4
