REMARK SMILES C[C@H]1CCCCN1CCC1CCN(c2ncnc3[nH]ncc23)CC1
REMARK SMILES IDX 9 1 8 2 7 3 2 4 3 5 4 6 6 7 5 8 1 9 10 10 11 11 24 12 12 13
REMARK SMILES IDX 23 14 13 15 14 16 15 17 22 18 16 19 21 20 18 21 17 22 20 23
REMARK SMILES IDX 19 24
REMARK H PARENT 19 25
ROOT
ATOM      1  C   UNL     1       0.737   0.051  -2.284  1.00  0.00     0.019 C 
ENDROOT
BRANCH   1   2
ATOM      2  C   UNL     1       0.644   1.582  -2.162  1.00  0.00     0.085 C 
BRANCH   2   3
ATOM      3  N   UNL     1      -0.574   1.983  -1.407  1.00  0.00    -0.301 NA
ATOM      4  C   UNL     1      -1.662   2.521  -2.276  1.00  0.00     0.053 C 
ATOM      5  C   UNL     1      -2.920   2.902  -1.436  1.00  0.00     0.019 C 
ATOM      6  C   UNL     1      -2.695   2.730   0.069  1.00  0.00     0.003 C 
ATOM      7  C   UNL     1      -0.204   2.978  -0.369  1.00  0.00     0.085 C 
ATOM      8  C   UNL     1      -1.406   3.428   0.487  1.00  0.00     0.016 C 
ATOM      9  C   UNL     1      -2.084   1.519  -3.369  1.00  0.00     0.024 C 
ENDBRANCH   2   3
ENDBRANCH   1   2
BRANCH   1  10
ATOM     10  C   UNL     1       0.811  -0.668  -0.917  1.00  0.00    -0.006 C 
ATOM     11  C   UNL     1       2.127  -0.340  -0.157  1.00  0.00     0.025 C 
ATOM     12  C   UNL     1       0.648  -2.190  -1.104  1.00  0.00     0.025 C 
ATOM     13  C   UNL     1       2.620  -1.497   0.729  1.00  0.00     0.118 C 
ATOM     14  C   UNL     1       0.573  -2.894   0.263  1.00  0.00     0.118 C 
ATOM     15  N   UNL     1       1.481  -2.271   1.240  1.00  0.00    -0.356 N 
BRANCH  15  16
ATOM     16  C   UNL     1       1.133  -2.199   2.638  1.00  0.00     0.143 A 
ATOM     17  N   UNL     1       1.448  -1.083   3.367  1.00  0.00    -0.219 NA
ATOM     18  C   UNL     1       0.481  -3.234   3.318  1.00  0.00     0.081 A 
ATOM     19  C   UNL     1       1.141  -0.973   4.698  1.00  0.00     0.226 A 
ATOM     20  C   UNL     1       0.047  -4.507   2.992  1.00  0.00     0.149 A 
ATOM     21  C   UNL     1       0.190  -3.100   4.638  1.00  0.00     0.160 A 
ATOM     22  N   UNL     1       0.509  -1.993   5.348  1.00  0.00    -0.217 NA
ATOM     23  N   UNL     1      -0.484  -5.077   4.103  1.00  0.00    -0.181 NA
ATOM     24  N   UNL     1      -0.393  -4.212   5.106  1.00  0.00    -0.261 N 
ATOM     25  H   UNL     1      -0.708  -4.395   6.082  1.00  0.00     0.192 HD
ENDBRANCH  15  16
ENDBRANCH   1  10
TORSDOF 4
