REMARK SMILES c1ccc(-c2noc(C3CCN(C[C@@H]4CCCCNC4)CC3)n2)cc1
REMARK SMILES IDX 13 1 12 2 9 3 10 4 22 5 11 6 21 7 8 8 5 9 6 10 23 11 7 12
REMARK SMILES IDX 4 13 1 14 2 15 25 16 3 17 24 18 14 19 15 20 16 21 17 22
REMARK SMILES IDX 20 24 19 25 18 27
REMARK H PARENT 19 26
REMARK Flexibility Score:   65.900
ROOT
ATOM      1  C   UNL     1      -0.557   0.100  -0.855  1.00  0.00     0.089 C 
ENDROOT
BRANCH   1   2
ATOM      2  N   UNL     1      -0.315   1.454  -1.408  1.00  0.00    -0.303 NA
ATOM      3  C   UNL     1       2.532   2.079  -1.404  1.00  0.00     0.081 C 
ATOM      4  C   UNL     1       1.702   2.340  -2.672  1.00  0.00     0.029 C 
ATOM      5  C   UNL     1       1.685   2.256  -0.115  1.00  0.00     0.029 C 
ATOM      6  C   UNL     1       0.428   1.476  -2.700  1.00  0.00     0.085 C 
ATOM      7  C   UNL     1       0.176   2.412  -0.393  1.00  0.00     0.085 C 
BRANCH   3   8
ATOM      8  C   UNL     1       3.184   0.721  -1.474  1.00  0.00     0.230 A 
ATOM      9  C   UNL     1       3.533  -1.340  -1.428  1.00  0.00     0.202 A 
ATOM     10  N   UNL     1       4.658  -0.763  -1.900  1.00  0.00    -0.057 NA
ATOM     11  N   UNL     1       2.572  -0.435  -1.149  1.00  0.00    -0.191 NA
ATOM     12  O   UNL     1       4.402   0.510  -1.914  1.00  0.00    -0.339 OA
BRANCH   9  13
ATOM     13  C   UNL     1       3.345  -2.799  -1.279  1.00  0.00     0.023 A 
ATOM     14  C   UNL     1       2.954  -5.570  -1.054  1.00  0.00     0.000 A 
ATOM     15  C   UNL     1       4.167  -5.070  -1.533  1.00  0.00     0.001 A 
ATOM     16  C   UNL     1       1.940  -4.692  -0.669  1.00  0.00     0.001 A 
ATOM     17  C   UNL     1       4.363  -3.691  -1.652  1.00  0.00     0.012 A 
ATOM     18  C   UNL     1       2.131  -3.312  -0.784  1.00  0.00     0.012 A 
ENDBRANCH   9  13
ENDBRANCH   3   8
ENDBRANCH   1   2
BRANCH   1  19
ATOM     19  C   UNL     1      -2.032  -0.053  -0.431  1.00  0.00     0.017 C 
BRANCH  19  20
ATOM     20  C   UNL     1      -2.225  -1.399   0.310  1.00  0.00     0.006 C 
BRANCH  20  21
ATOM     21  C   UNL     1      -3.629  -1.659   0.908  1.00  0.00     0.002 C 
BRANCH  21  22
ATOM     22  C   UNL     1      -4.501  -0.406   1.110  1.00  0.00     0.015 CG0
ATOM     23  G   UNL     1      -4.934   0.332  -0.186  1.00  0.00     0.000 G0
ENDBRANCH  21  22
ENDBRANCH  20  21
ENDBRANCH  19  20
BRANCH  19  24
ATOM     24  C   UNL     1      -2.957   0.095  -1.668  1.00  0.00     0.085 C 
BRANCH  24  25
ATOM     25  N   UNL     1      -4.374  -0.231  -1.428  1.00  0.00    -0.316 NA
ATOM     26  H   UNL     1      -4.557  -1.256  -1.522  1.00  0.00     0.122 HD
BRANCH  25  27
ATOM     27  C   UNL     1      -4.934   0.332  -0.186  1.00  0.00     0.081 CG0
ATOM     28  G   UNL     1      -4.501  -0.406   1.110  1.00  0.00     0.000 G0
ENDBRANCH  25  27
ENDBRANCH  24  25
ENDBRANCH  19  24
ENDBRANCH   1  19
TORSDOF 4
