REMARK SMILES Cn1ncc(C(=O)N2CCC(Oc3ccc(Cl)cc3)CC2)c1C(F)F
REMARK SMILES IDX 6 1 7 2 8 3 9 4 10 5 11 6 20 7 21 8 5 9 2 10 3 11 22 12 4 13
REMARK SMILES IDX 1 14 23 15 24 16 25 17 12 18 13 19 14 20 19 21 15 22 18 23
REMARK SMILES IDX 16 24 17 25
REMARK H PARENT
ROOT
ATOM      1  C   UNL     1       1.245  -0.156  -1.979  1.00  0.00     0.257 C 
ATOM      2  O   UNL     1       1.606   0.523  -2.977  1.00  0.00    -0.269 OA
ATOM      3  N   UNL     1       0.766   0.517  -0.801  1.00  0.00    -0.338 N 
ATOM      4  C   UNL     1      -0.467   0.085  -0.132  1.00  0.00     0.123 C 
ATOM      5  C   UNL     1      -1.532   1.180  -0.260  1.00  0.00     0.067 C 
ATOM      6  C   UNL     1      -0.998   2.545   0.223  1.00  0.00     0.176 C 
ATOM      7  C   UNL     1       0.297   2.908  -0.525  1.00  0.00     0.067 C 
ATOM      8  C   UNL     1       1.346   1.800  -0.389  1.00  0.00     0.123 C 
ENDROOT
BRANCH   1   9
ATOM      9  C   UNL     1       1.350  -1.630  -2.022  1.00  0.00     0.087 A 
ATOM     10  N   UNL     1       1.601  -3.732  -2.681  1.00  0.00    -0.266 N 
ATOM     11  N   UNL     1       1.548  -3.751  -1.359  1.00  0.00    -0.180 NA
ATOM     12  C   UNL     1       1.482  -2.461  -3.127  1.00  0.00     0.117 A 
ATOM     13  C   UNL     1       1.396  -2.482  -0.932  1.00  0.00     0.149 A 
ATOM     14  C   UNL     1       1.767  -4.934  -3.490  1.00  0.00     0.174 C 
BRANCH  12  15
ATOM     15  C   UNL     1       1.515  -2.044  -4.572  1.00  0.00     0.391 C 
ATOM     16  F   UNL     1       2.688  -1.362  -4.832  1.00  0.00    -0.203 F 
ATOM     17  F   UNL     1       0.432  -1.230  -4.853  1.00  0.00    -0.203 F 
ENDBRANCH  12  15
ENDBRANCH   1   9
BRANCH   6  18
ATOM     18  O   UNL     1      -0.734   2.518   1.629  1.00  0.00    -0.490 OA
BRANCH  18  19
ATOM     19  C   UNL     1      -1.700   2.519   2.647  1.00  0.00     0.119 A 
ATOM     20  C   UNL     1      -1.265   2.353   3.968  1.00  0.00     0.048 A 
ATOM     21  C   UNL     1      -3.077   2.687   2.396  1.00  0.00     0.048 A 
ATOM     22  C   UNL     1      -2.182   2.345   5.024  1.00  0.00     0.024 A 
ATOM     23  C   UNL     1      -3.992   2.679   3.454  1.00  0.00     0.024 A 
ATOM     24  C   UNL     1      -3.546   2.507   4.768  1.00  0.00     0.041 A 
ATOM     25  Cl  UNL     1      -4.696   2.497   6.092  1.00  0.00    -0.084 Cl
ENDBRANCH  18  19
ENDBRANCH   6  18
TORSDOF 4
