REMARK SMILES O=C(C[C@@H]1C[C@H]2CC[C@@H](C1)N2)Nc1ccc(OCc2cccnc2)c(Cl)c1
REMARK SMILES IDX 13 1 14 2 15 3 16 4 25 5 26 6 27 7 12 8 1 9 2 10 3 12 4 13
REMARK SMILES IDX 10 14 5 15 9 16 6 17 8 18 11 19 7 20 17 22 18 23 19 24 20 25
REMARK SMILES IDX 24 26 21 27 23 28 22 29
REMARK H PARENT 12 11 11 21
ROOT
ATOM      1  C   UNL     1       0.084   0.439  -2.071  1.00  0.00     0.042 A 
ATOM      2  C   UNL     1       1.201  -0.379  -2.305  1.00  0.00     0.030 A 
ATOM      3  C   UNL     1       2.387   0.168  -2.804  1.00  0.00     0.050 A 
ATOM      4  C   UNL     1       2.473   1.545  -3.087  1.00  0.00     0.138 A 
ATOM      5  C   UNL     1       1.347   2.355  -2.877  1.00  0.00     0.085 A 
ATOM      6  Cl  UNL     1       1.411   4.075  -3.230  1.00  0.00    -0.080 Cl
ATOM      7  C   UNL     1       0.161   1.804  -2.380  1.00  0.00     0.050 A 
ENDROOT
BRANCH   1   8
ATOM      8  N   UNL     1      -1.153  -0.103  -1.578  1.00  0.00    -0.326 N 
ATOM      9  O   UNL     1      -0.207  -1.571  -0.012  1.00  0.00    -0.275 OA
ATOM     10  C   UNL     1      -1.238  -1.165  -0.614  1.00  0.00     0.224 C 
ATOM     11  H   UNL     1      -2.040   0.370  -1.861  1.00  0.00     0.169 HD
BRANCH  10  12
ATOM     12  C   UNL     1      -2.574  -1.748  -0.252  1.00  0.00     0.104 C 
BRANCH  12  13
ATOM     13  C   UNL     1      -3.129  -1.133   1.048  1.00  0.00     0.001 C 
ATOM     14  C   UNL     1      -3.416   0.389   0.892  1.00  0.00     0.023 C 
ATOM     15  C   UNL     1      -4.386  -1.915   1.525  1.00  0.00     0.023 C 
ATOM     16  C   UNL     1      -4.356   0.917   2.008  1.00  0.00     0.054 C 
ATOM     17  C   UNL     1      -5.208  -1.109   2.565  1.00  0.00     0.054 C 
ATOM     18  C   UNL     1      -3.780   0.646   3.403  1.00  0.00     0.020 C 
ATOM     19  N   UNL     1      -5.607   0.167   1.978  1.00  0.00    -0.311 NA
ATOM     20  C   UNL     1      -4.356  -0.721   3.779  1.00  0.00     0.020 C 
ATOM     21  H   UNL     1      -5.960   0.047   0.998  1.00  0.00     0.123 HD
ENDBRANCH  12  13
ENDBRANCH  10  12
ENDBRANCH   1   8
BRANCH   4  22
ATOM     22  O   UNL     1       3.647   2.139  -3.581  1.00  0.00    -0.487 OA
BRANCH  22  23
ATOM     23  C   UNL     1       4.906   1.481  -3.733  1.00  0.00     0.267 C 
BRANCH  23  24
ATOM     24  C   UNL     1       5.512   1.168  -2.392  1.00  0.00     0.008 A 
ATOM     25  C   UNL     1       5.643   2.171  -1.420  1.00  0.00     0.010 A 
ATOM     26  C   UNL     1       5.987  -0.120  -2.098  1.00  0.00     0.118 A 
ATOM     27  C   UNL     1       6.217   1.874  -0.183  1.00  0.00     0.020 A 
ATOM     28  N   UNL     1       6.543  -0.384  -0.885  1.00  0.00    -0.264 NA
ATOM     29  C   UNL     1       6.664   0.576   0.070  1.00  0.00     0.111 A 
ENDBRANCH  23  24
ENDBRANCH  22  23
ENDBRANCH   4  22
TORSDOF 6
