REMARK SMILES O=C(N[C@H]1C[C@H]2CNC[C@H]2C1)c1ccc(OCC2CCCCC2)cc1
REMARK SMILES IDX 12 1 13 2 14 3 15 4 24 5 25 6 2 7 1 8 3 9 4 11 11 12 5 13
REMARK SMILES IDX 10 14 6 15 9 16 7 17 8 18 16 20 17 21 18 22 19 23 23 24
REMARK SMILES IDX 20 25 22 26 21 27
REMARK H PARENT 3 10 8 19
ROOT
ATOM      1  C   UNL     1       1.060  -0.553  -1.947  1.00  0.00     0.040 A 
ATOM      2  C   UNL     1       1.727  -0.946  -0.773  1.00  0.00     0.017 A 
ATOM      3  C   UNL     1       2.812  -0.207  -0.290  1.00  0.00     0.047 A 
ATOM      4  C   UNL     1       3.256   0.939  -0.977  1.00  0.00     0.119 A 
ATOM      5  C   UNL     1       2.607   1.316  -2.156  1.00  0.00     0.047 A 
ATOM      6  C   UNL     1       1.521   0.583  -2.638  1.00  0.00     0.017 A 
ENDROOT
BRANCH   1   7
ATOM      7  C   UNL     1      -0.090  -1.324  -2.482  1.00  0.00     0.251 C 
ATOM      8  O   UNL     1      -0.367  -1.238  -3.711  1.00  0.00    -0.269 OA
ATOM      9  N   UNL     1      -0.901  -2.153  -1.631  1.00  0.00    -0.349 N 
ATOM     10  H   UNL     1      -0.720  -2.164  -0.602  1.00  0.00     0.164 HD
BRANCH   9  11
ATOM     11  C   UNL     1      -1.981  -2.988  -2.174  1.00  0.00     0.083 C 
ATOM     12  C   UNL     1      -3.202  -2.140  -2.507  1.00  0.00     0.030 C 
ATOM     13  C   UNL     1      -2.483  -3.992  -1.138  1.00  0.00     0.030 C 
ATOM     14  C   UNL     1      -4.072  -2.121  -1.245  1.00  0.00     0.009 C 
ATOM     15  C   UNL     1      -3.662  -3.327  -0.411  1.00  0.00     0.009 C 
ATOM     16  C   UNL     1      -3.817  -0.903  -0.349  1.00  0.00     0.085 C 
ATOM     17  C   UNL     1      -3.286  -2.756   0.957  1.00  0.00     0.085 C 
ATOM     18  N   UNL     1      -2.985  -1.340   0.768  1.00  0.00    -0.316 NA
ATOM     19  H   UNL     1      -3.260  -0.813   1.631  1.00  0.00     0.122 HD
ENDBRANCH   9  11
ENDBRANCH   1   7
BRANCH   4  20
ATOM     20  O   UNL     1       4.336   1.725  -0.543  1.00  0.00    -0.493 OA
BRANCH  20  21
ATOM     21  C   UNL     1       4.961   1.681   0.744  1.00  0.00     0.233 C 
BRANCH  21  22
ATOM     22  C   UNL     1       4.268   2.613   1.758  1.00  0.00     0.027 C 
ATOM     23  C   UNL     1       2.870   2.107   2.161  1.00  0.00     0.007 C 
ATOM     24  C   UNL     1       4.184   4.058   1.224  1.00  0.00     0.007 C 
ATOM     25  C   UNL     1       2.233   3.037   3.201  1.00  0.00     0.000 C 
ATOM     26  C   UNL     1       3.535   4.988   2.259  1.00  0.00     0.000 C 
ATOM     27  C   UNL     1       2.152   4.474   2.673  1.00  0.00     0.000 C 
ENDBRANCH  21  22
ENDBRANCH  20  21
ENDBRANCH   4  20
TORSDOF 5
