REMARK SMILES O=C(NCCc1csc(-c2ccccc2)n1)c1ccc(F)c(F)c1
REMARK SMILES IDX 4 1 3 2 1 3 2 4 17 6 18 7 24 8 19 9 22 10 20 11 23 12 21 13
REMARK SMILES IDX 5 14 6 15 7 16 16 17 8 18 9 19 10 20 11 21 15 22 12 23 14 24
REMARK SMILES IDX 13 25
REMARK H PARENT 3 5
ROOT
ATOM      1  C   UNL     1      -0.914  -2.838   3.045  1.00  0.00     0.122 C 
ENDROOT
BRANCH   1   2
ATOM      2  N   UNL     1      -0.862  -3.109   1.608  1.00  0.00    -0.352 N 
ATOM      3  O   UNL     1      -2.855  -2.026   1.063  1.00  0.00    -0.269 OA
ATOM      4  C   UNL     1      -1.722  -2.428   0.677  1.00  0.00     0.251 C 
ATOM      5  H   UNL     1      -0.068  -3.687   1.254  1.00  0.00     0.163 HD
BRANCH   4   6
ATOM      6  C   UNL     1      -1.294  -2.161  -0.720  1.00  0.00     0.042 A 
ATOM      7  C   UNL     1       0.066  -2.213  -1.092  1.00  0.00     0.017 A 
ATOM      8  C   UNL     1      -2.247  -1.790  -1.687  1.00  0.00     0.056 A 
ATOM      9  C   UNL     1       0.455  -1.909  -2.400  1.00  0.00     0.043 A 
ATOM     10  C   UNL     1      -1.851  -1.484  -2.993  1.00  0.00     0.159 A 
ATOM     11  C   UNL     1      -0.501  -1.542  -3.349  1.00  0.00     0.158 A 
ATOM     12  F   UNL     1      -2.784  -1.118  -3.911  1.00  0.00    -0.204 F 
ATOM     13  F   UNL     1      -0.114  -1.238  -4.612  1.00  0.00    -0.204 F 
ENDBRANCH   4   6
ENDBRANCH   1   2
BRANCH   1  14
ATOM     14  C   UNL     1       0.076  -1.733   3.432  1.00  0.00     0.078 C 
BRANCH  14  15
ATOM     15  C   UNL     1      -0.169  -0.476   2.652  1.00  0.00     0.054 A 
ATOM     16  C   UNL     1      -1.241   0.378   2.901  1.00  0.00     0.091 A 
ATOM     17  N   UNL     1       0.569  -0.171   1.550  1.00  0.00    -0.241 NA
ATOM     18  S   UNL     1      -1.244   1.546   1.696  1.00  0.00    -0.122 S 
ATOM     19  C   UNL     1       0.111   0.926   0.910  1.00  0.00     0.123 A 
BRANCH  19  20
ATOM     20  C   UNL     1       0.702   1.443  -0.346  1.00  0.00     0.010 A 
ATOM     21  C   UNL     1       0.129   2.532  -1.024  1.00  0.00     0.011 A 
ATOM     22  C   UNL     1       1.845   0.832  -0.889  1.00  0.00     0.011 A 
ATOM     23  C   UNL     1       0.684   2.997  -2.222  1.00  0.00     0.001 A 
ATOM     24  C   UNL     1       2.401   1.298  -2.084  1.00  0.00     0.001 A 
ATOM     25  C   UNL     1       1.819   2.380  -2.751  1.00  0.00     0.000 A 
ENDBRANCH  19  20
ENDBRANCH  14  15
ENDBRANCH   1  14
TORSDOF 5
