REMARK SMILES Cn1nc(-c2ccc(F)cc2)cc1C(=O)N1CC[C@](C#N)(C(N)=O)C1
REMARK SMILES IDX 14 1 15 2 13 3 2 4 3 5 4 6 12 7 1 8 5 9 6 10 11 11 7 12
REMARK SMILES IDX 10 13 8 14 9 15 16 16 17 17 25 18 18 19 19 20 20 21 21 22
REMARK SMILES IDX 22 23 23 24 24 25
REMARK H PARENT 23 26 23 27
ROOT
ATOM      1  C   UNL     1       0.335   1.391   0.855  1.00  0.00     0.272 C 
ATOM      2  O   UNL     1       0.518   2.400   1.588  1.00  0.00    -0.267 OA
ENDROOT
BRANCH   1   3
ATOM      3  C   UNL     1      -0.427   0.246   1.392  1.00  0.00     0.126 A 
ATOM      4  N   UNL     1      -1.493   0.332   2.216  1.00  0.00    -0.262 N 
ATOM      5  N   UNL     1      -1.883  -0.883   2.565  1.00  0.00    -0.172 NA
ATOM      6  C   UNL     1      -1.064  -1.770   1.961  1.00  0.00     0.093 A 
ATOM      7  C   UNL     1      -0.117  -1.087   1.210  1.00  0.00     0.064 A 
ATOM      8  C   UNL     1      -2.135   1.548   2.701  1.00  0.00     0.174 C 
BRANCH   6   9
ATOM      9  C   UNL     1      -1.183  -3.240   2.124  1.00  0.00     0.002 A 
ATOM     10  C   UNL     1      -2.160  -3.774   2.984  1.00  0.00     0.013 A 
ATOM     11  C   UNL     1      -0.335  -4.124   1.428  1.00  0.00     0.013 A 
ATOM     12  C   UNL     1      -2.284  -5.157   3.147  1.00  0.00     0.040 A 
ATOM     13  C   UNL     1      -0.463  -5.506   1.594  1.00  0.00     0.040 A 
ATOM     14  C   UNL     1      -1.436  -6.023   2.453  1.00  0.00     0.123 A 
ATOM     15  F   UNL     1      -1.558  -7.364   2.611  1.00  0.00    -0.207 F 
ENDBRANCH   6   9
ENDBRANCH   1   3
BRANCH   1  16
ATOM     16  N   UNL     1       0.882   1.373  -0.476  1.00  0.00    -0.335 N 
ATOM     17  C   UNL     1       1.932   2.285  -0.901  1.00  0.00     0.122 C 
ATOM     18  C   UNL     1       0.279   0.653  -1.589  1.00  0.00     0.152 C 
ATOM     19  C   UNL     1       1.935   2.238  -2.425  1.00  0.00     0.056 C 
ATOM     20  C   UNL     1       1.175   0.952  -2.806  1.00  0.00     0.154 C 
ATOM     21  C   UNL     1       2.154  -0.150  -2.965  1.00  0.00     0.081 C 
ATOM     22  N   UNL     1       2.919  -1.010  -3.087  1.00  0.00    -0.197 NA
BRANCH  20  23
ATOM     23  C   UNL     1       0.359   1.133  -4.079  1.00  0.00     0.239 C 
ATOM     24  N   UNL     1      -0.660   2.133  -4.160  1.00  0.00    -0.368 N 
ATOM     25  O   UNL     1       0.574   0.403  -5.086  1.00  0.00    -0.273 OA
ATOM     26  H   UNL     1      -0.872   2.761  -3.353  1.00  0.00     0.159 HD
ATOM     27  H   UNL     1      -1.213   2.247  -5.039  1.00  0.00     0.159 HD
ENDBRANCH  20  23
ENDBRANCH   1  16
TORSDOF 4
