REMARK SMILES C[C@H](NC(=O)c1ccc(Oc2ccc(Cl)cc2)cc1)[C@@H]1CCNC1
REMARK SMILES IDX 6 1 7 2 8 3 9 4 18 5 19 6 4 7 3 8 5 9 2 11 1 12 20 13 21 14
REMARK SMILES IDX 24 15 22 16 23 17 10 19 11 20 12 21 17 22 13 23 16 24 14 25
REMARK SMILES IDX 15 26
REMARK H PARENT 3 10 23 18
ROOT
ATOM      1  C   UNL     1       1.408  -0.087   0.042  1.00  0.00     0.040 A 
ATOM      2  C   UNL     1       2.656   0.453   0.400  1.00  0.00     0.017 A 
ATOM      3  C   UNL     1       2.796   1.825   0.629  1.00  0.00     0.048 A 
ATOM      4  C   UNL     1       1.697   2.681   0.506  1.00  0.00     0.127 A 
ATOM      5  C   UNL     1       0.454   2.151   0.120  1.00  0.00     0.048 A 
ATOM      6  C   UNL     1       0.310   0.779  -0.106  1.00  0.00     0.017 A 
ENDROOT
BRANCH   1   7
ATOM      7  C   UNL     1       1.271  -1.541  -0.212  1.00  0.00     0.251 C 
ATOM      8  N   UNL     1      -0.006  -2.192  -0.098  1.00  0.00    -0.349 N 
ATOM      9  O   UNL     1       2.293  -2.215  -0.518  1.00  0.00    -0.269 OA
ATOM     10  H   UNL     1      -0.762  -1.710   0.435  1.00  0.00     0.164 HD
BRANCH   8  11
ATOM     11  C   UNL     1      -0.272  -3.530  -0.645  1.00  0.00     0.083 C 
ATOM     12  C   UNL     1      -0.708  -4.474   0.480  1.00  0.00     0.031 C 
BRANCH  11  13
ATOM     13  C   UNL     1      -1.315  -3.482  -1.796  1.00  0.00     0.026 C 
ATOM     14  C   UNL     1      -0.889  -2.575  -2.950  1.00  0.00     0.022 C 
ATOM     15  C   UNL     1      -2.708  -2.981  -1.389  1.00  0.00     0.086 C 
ATOM     16  C   UNL     1      -2.002  -1.549  -3.080  1.00  0.00     0.081 C 
ATOM     17  N   UNL     1      -3.196  -2.108  -2.454  1.00  0.00    -0.316 NA
ATOM     18  H   UNL     1      -3.676  -2.709  -3.165  1.00  0.00     0.122 HD
ENDBRANCH  11  13
ENDBRANCH   8  11
ENDBRANCH   1   7
BRANCH   4  19
ATOM     19  O   UNL     1       1.885   4.054   0.721  1.00  0.00    -0.457 OA
BRANCH  19  20
ATOM     20  C   UNL     1       0.906   4.945   1.185  1.00  0.00     0.127 A 
ATOM     21  C   UNL     1       0.960   6.281   0.768  1.00  0.00     0.048 A 
ATOM     22  C   UNL     1      -0.095   4.546   2.091  1.00  0.00     0.048 A 
ATOM     23  C   UNL     1       0.008   7.202   1.218  1.00  0.00     0.024 A 
ATOM     24  C   UNL     1      -1.047   5.467   2.539  1.00  0.00     0.024 A 
ATOM     25  C   UNL     1      -0.998   6.795   2.101  1.00  0.00     0.041 A 
ATOM     26  Cl  UNL     1      -2.196   7.950   2.657  1.00  0.00    -0.084 Cl
ENDBRANCH  19  20
ENDBRANCH   4  19
TORSDOF 5
