REMARK SMILES C[C@@H](NCc1nc2sc3c(c2c(=O)[nH]1)CCC3)c1cc(Br)cs1
REMARK SMILES IDX 3 1 2 3 1 4 18 5 19 6 23 7 20 8 22 9 21 10 4 11 5 12 6 13
REMARK SMILES IDX 14 14 7 15 12 16 8 17 11 18 13 19 9 20 10 21 17 22 15 23
REMARK SMILES IDX 16 24
REMARK H PARENT 3 2 14 25
ROOT
ATOM      1  N   UNL     1      -2.854   0.074  -1.849  1.00  0.00    -0.302 NA
ATOM      2  H   UNL     1      -2.449  -0.360  -2.712  1.00  0.00     0.123 HD
ENDROOT
BRANCH   1   3
ATOM      3  C   UNL     1      -3.073  -0.981  -0.840  1.00  0.00     0.091 C 
ATOM      4  C   UNL     1      -3.955  -2.087  -1.428  1.00  0.00     0.030 C 
BRANCH   3   5
ATOM      5  C   UNL     1      -3.730  -0.421   0.395  1.00  0.00     0.022 A 
ATOM      6  C   UNL     1      -3.231  -0.514   1.688  1.00  0.00     0.032 A 
ATOM      7  S   UNL     1      -5.176   0.442   0.438  1.00  0.00    -0.146 S 
ATOM      8  C   UNL     1      -4.046   0.117   2.635  1.00  0.00     0.029 A 
ATOM      9  C   UNL     1      -5.184   0.705   2.099  1.00  0.00     0.080 A 
ATOM     10  Br  UNL     1      -3.627   0.169   4.495  1.00  0.00    -0.050 Br
ENDBRANCH   3   5
ENDBRANCH   1   3
BRANCH   1  11
ATOM     11  C   UNL     1      -1.934   1.136  -1.401  1.00  0.00     0.157 C 
BRANCH  11  12
ATOM     12  C   UNL     1      -0.550   0.615  -1.123  1.00  0.00     0.124 A 
ATOM     13  N   UNL     1      -0.153   0.432   0.171  1.00  0.00    -0.222 NA
ATOM     14  N   UNL     1       0.287   0.280  -2.158  1.00  0.00    -0.309 N 
ATOM     15  C   UNL     1       1.077  -0.072   0.418  1.00  0.00     0.131 A 
ATOM     16  C   UNL     1       1.533  -0.231  -1.925  1.00  0.00     0.259 A 
ATOM     17  S   UNL     1       1.762  -0.385   1.938  1.00  0.00    -0.120 S 
ATOM     18  C   UNL     1       1.943  -0.414  -0.607  1.00  0.00     0.080 A 
ATOM     19  O   UNL     1       2.288  -0.532  -2.888  1.00  0.00    -0.269 OA
ATOM     20  C   UNL     1       3.190  -0.961   1.239  1.00  0.00     0.011 A 
ATOM     21  C   UNL     1       3.143  -0.918  -0.110  1.00  0.00    -0.019 A 
ATOM     22  C   UNL     1       4.448  -1.503   1.775  1.00  0.00     0.047 C 
ATOM     23  C   UNL     1       4.377  -1.431  -0.736  1.00  0.00     0.038 C 
ATOM     24  C   UNL     1       5.252  -1.816   0.487  1.00  0.00     0.010 C 
ATOM     25  H   UNL     1      -0.031   0.416  -3.144  1.00  0.00     0.171 HD
ENDBRANCH  11  12
ENDBRANCH   1  11
TORSDOF 4
