REMARK SMILES Cc1ccc(SCC(=O)N2CCC3(CC2)C[C@@H](O)CCO3)cc1
REMARK SMILES IDX 7 1 6 2 5 3 2 4 3 5 23 6 4 7 22 8 1 9 8 10 9 11 10 12 11 13
REMARK SMILES IDX 15 14 12 15 14 16 13 17 16 18 21 19 17 20 20 21 19 22 18 23
REMARK H PARENT 18 24
ROOT
ATOM      1  C   UNL     1       2.515   2.154  -1.510  1.00  0.00     0.175 C 
ENDROOT
BRANCH   1   2
ATOM      2  S   UNL     1       3.982   1.116  -1.849  1.00  0.00    -0.116 SA
BRANCH   2   3
ATOM      3  C   UNL     1       3.329  -0.363  -1.071  1.00  0.00     0.008 A 
ATOM      4  C   UNL     1       2.273  -2.661   0.146  1.00  0.00    -0.051 A 
ATOM      5  C   UNL     1       2.102  -2.447  -1.231  1.00  0.00     0.004 A 
ATOM      6  C   UNL     1       2.974  -1.714   0.910  1.00  0.00     0.004 A 
ATOM      7  C   UNL     1       2.632  -1.305  -1.836  1.00  0.00     0.015 A 
ATOM      8  C   UNL     1       3.512  -0.576   0.300  1.00  0.00     0.015 A 
ATOM      9  C   UNL     1       1.649  -3.851   0.812  1.00  0.00     0.044 C 
ENDBRANCH   2   3
ENDBRANCH   1   2
BRANCH   1  10
ATOM     10  C   UNL     1       1.317   1.679  -2.291  1.00  0.00     0.232 C 
ATOM     11  O   UNL     1       1.397   1.679  -3.550  1.00  0.00    -0.274 OA
ATOM     12  N   UNL     1       0.076   1.282  -1.662  1.00  0.00    -0.342 N 
ATOM     13  C   UNL     1      -1.165   1.466  -2.427  1.00  0.00     0.122 C 
ATOM     14  C   UNL     1      -0.000   0.909  -0.241  1.00  0.00     0.122 C 
ATOM     15  C   UNL     1      -2.404   1.101  -1.601  1.00  0.00     0.057 C 
ATOM     16  C   UNL     1      -0.973  -0.263  -0.003  1.00  0.00     0.057 C 
ATOM     17  C   UNL     1      -2.260  -0.273  -0.901  1.00  0.00     0.074 C 
ATOM     18  C   UNL     1      -2.192  -1.384  -2.008  1.00  0.00     0.067 C 
ATOM     19  O   UNL     1      -3.433  -0.413  -0.099  1.00  0.00    -0.375 OA
ATOM     20  C   UNL     1      -2.525  -2.799  -1.504  1.00  0.00     0.119 C 
ATOM     21  C   UNL     1      -3.573  -1.702   0.472  1.00  0.00     0.163 C 
ATOM     22  C   UNL     1      -3.758  -2.760  -0.609  1.00  0.00     0.060 C 
BRANCH  20  23
ATOM     23  O   UNL     1      -1.446  -3.352  -0.797  1.00  0.00    -0.393 OA
ATOM     24  H   UNL     1      -0.794  -3.670  -1.474  1.00  0.00     0.210 HD
ENDBRANCH  20  23
ENDBRANCH   1  10
TORSDOF 4
