REMARK SMILES CC(=O)OCC(=O)N1CCn2ncc([S@](C)(=O)=NC(=O)[C@@H]3CC3(C)C)c2C1
REMARK SMILES IDX 8 1 9 2 10 3 11 4 12 5 13 6 14 7 26 8 27 9 6 10 7 11 5 12
REMARK SMILES IDX 4 13 2 14 3 15 1 16 15 17 17 18 18 19 16 20 19 21 20 22
REMARK SMILES IDX 21 23 22 24 23 25 24 26 25 27
REMARK H PARENT
ROOT
ATOM      1  N   UNL     1      -1.493   0.991   0.978  1.00  0.00    -0.332 N 
ATOM      2  C   UNL     1      -2.810   1.486   0.523  1.00  0.00     0.143 C 
ATOM      3  C   UNL     1      -2.654   2.567  -0.553  1.00  0.00     0.166 C 
ATOM      4  N   UNL     1      -1.712   2.120  -1.568  1.00  0.00    -0.265 N 
ATOM      5  N   UNL     1      -1.644   2.590  -2.804  1.00  0.00    -0.180 NA
ATOM      6  C   UNL     1      -0.577   2.011  -3.397  1.00  0.00     0.154 A 
ATOM      7  C   UNL     1       0.044   1.168  -2.492  1.00  0.00     0.091 A 
ATOM      8  C   UNL     1      -0.699   1.274  -1.337  1.00  0.00     0.075 A 
ATOM      9  C   UNL     1      -0.468   0.608  -0.015  1.00  0.00     0.176 C 
ENDROOT
BRANCH   1  10
ATOM     10  C   UNL     1      -1.275   0.592   2.352  1.00  0.00     0.261 C 
ATOM     11  O   UNL     1      -0.128   0.215   2.719  1.00  0.00    -0.271 OA
BRANCH  10  12
ATOM     12  C   UNL     1      -2.370   0.627   3.384  1.00  0.00     0.332 C 
BRANCH  12  13
ATOM     13  O   UNL     1      -2.626   1.969   3.798  1.00  0.00    -0.456 OA
BRANCH  13  14
ATOM     14  C   UNL     1      -1.747   2.710   4.596  1.00  0.00     0.303 C 
ATOM     15  O   UNL     1      -0.668   2.204   5.009  1.00  0.00    -0.253 OA
ATOM     16  C   UNL     1      -2.067   4.129   4.917  1.00  0.00     0.139 C 
ENDBRANCH  13  14
ENDBRANCH  12  13
ENDBRANCH  10  12
ENDBRANCH   1  10
BRANCH   7  17
ATOM     17  S   UNL     1       1.508   0.234  -2.749  1.00  0.00     0.083 S 
ATOM     18  O   UNL     1       1.746   0.075  -4.224  1.00  0.00    -0.244 OA
ATOM     19  N   UNL     1       1.331  -1.185  -2.094  1.00  0.00    -0.157 NA
ATOM     20  C   UNL     1       2.881   1.093  -2.009  1.00  0.00     0.140 C 
BRANCH  19  21
ATOM     21  C   UNL     1       2.343  -2.196  -2.114  1.00  0.00     0.257 C 
ATOM     22  O   UNL     1       3.394  -2.045  -2.793  1.00  0.00    -0.272 OA
BRANCH  21  23
ATOM     23  C   UNL     1       2.140  -3.469  -1.348  1.00  0.00     0.088 C 
ATOM     24  C   UNL     1       1.539  -3.295   0.051  1.00  0.00     0.021 C 
ATOM     25  C   UNL     1       3.008  -3.676  -0.102  1.00  0.00    -0.023 C 
ATOM     26  C   UNL     1       3.352  -5.127   0.243  1.00  0.00     0.012 C 
ATOM     27  C   UNL     1       4.018  -2.591   0.305  1.00  0.00     0.012 C 
ENDBRANCH  21  23
ENDBRANCH  19  21
ENDBRANCH   7  17
TORSDOF 7
