REMARK SMILES O=C(NCCc1csc(-c2ccccc2)n1)c1ccc(F)c(F)c1
REMARK SMILES IDX 4 1 3 2 1 3 2 4 17 6 18 7 24 8 19 9 22 10 20 11 23 12 21 13
REMARK SMILES IDX 5 14 6 15 7 16 16 17 8 18 9 19 10 20 11 21 15 22 12 23 14 24
REMARK SMILES IDX 13 25
REMARK H PARENT 3 5
ROOT
ATOM      1  C   UNL     1      -0.327  -2.830   1.795  1.00  0.00     0.122 C 
ENDROOT
BRANCH   1   2
ATOM      2  N   UNL     1       0.388  -2.238   0.664  1.00  0.00    -0.352 N 
ATOM      3  O   UNL     1       2.516  -2.831   1.418  1.00  0.00    -0.269 OA
ATOM      4  C   UNL     1       1.821  -2.140   0.624  1.00  0.00     0.251 C 
ATOM      5  H   UNL     1      -0.171  -1.927  -0.162  1.00  0.00     0.163 HD
BRANCH   4   6
ATOM      6  C   UNL     1       2.494  -1.246  -0.347  1.00  0.00     0.042 A 
ATOM      7  C   UNL     1       3.821  -1.497  -0.739  1.00  0.00     0.017 A 
ATOM      8  C   UNL     1       1.831  -0.120  -0.869  1.00  0.00     0.056 A 
ATOM      9  C   UNL     1       4.463  -0.652  -1.649  1.00  0.00     0.043 A 
ATOM     10  C   UNL     1       2.476   0.724  -1.779  1.00  0.00     0.159 A 
ATOM     11  C   UNL     1       3.791   0.457  -2.171  1.00  0.00     0.158 A 
ATOM     12  F   UNL     1       1.827   1.807  -2.272  1.00  0.00    -0.204 F 
ATOM     13  F   UNL     1       4.418   1.275  -3.052  1.00  0.00    -0.204 F 
ENDBRANCH   4   6
ENDBRANCH   1   2
BRANCH   1  14
ATOM     14  C   UNL     1      -0.244  -1.932   3.038  1.00  0.00     0.078 C 
BRANCH  14  15
ATOM     15  C   UNL     1      -1.017  -0.649   2.891  1.00  0.00     0.054 A 
ATOM     16  C   UNL     1      -1.522   0.046   3.986  1.00  0.00     0.091 A 
ATOM     17  N   UNL     1      -1.191  -0.030   1.690  1.00  0.00    -0.241 NA
ATOM     18  S   UNL     1      -2.224   1.463   3.415  1.00  0.00    -0.122 S 
ATOM     19  C   UNL     1      -1.851   1.144   1.803  1.00  0.00     0.123 A 
BRANCH  19  20
ATOM     20  C   UNL     1      -2.173   2.013   0.649  1.00  0.00     0.010 A 
ATOM     21  C   UNL     1      -1.947   1.556  -0.663  1.00  0.00     0.011 A 
ATOM     22  C   UNL     1      -2.703   3.303   0.838  1.00  0.00     0.011 A 
ATOM     23  C   UNL     1      -2.237   2.375  -1.758  1.00  0.00     0.001 A 
ATOM     24  C   UNL     1      -2.992   4.118  -0.261  1.00  0.00     0.001 A 
ATOM     25  C   UNL     1      -2.758   3.655  -1.558  1.00  0.00     0.000 A 
ENDBRANCH  19  20
ENDBRANCH  14  15
ENDBRANCH   1  14
TORSDOF 5
