REMARK SMILES O=S1(=O)CCCN1c1cccc(CNc2ncnc3nc[nH]c23)c1
REMARK SMILES IDX 13 1 12 2 8 3 9 4 24 5 10 6 11 7 7 8 1 9 2 10 3 11 4 12 5 13
REMARK SMILES IDX 6 14 14 15 15 17 16 18 23 19 17 20 22 21 19 22 18 23 21 24
REMARK SMILES IDX 20 25
REMARK H PARENT 14 16 22 26
ROOT
ATOM      1  C   UNL     1       0.712   1.865  -1.575  1.00  0.00     0.150 C 
ENDROOT
BRANCH   1   2
ATOM      2  C   UNL     1       0.178   1.017  -0.453  1.00  0.00    -0.027 A 
ATOM      3  C   UNL     1       0.177  -1.101   0.774  1.00  0.00     0.052 A 
ATOM      4  C   UNL     1      -0.845  -0.595   1.601  1.00  0.00     0.027 A 
ATOM      5  C   UNL     1       0.679  -0.280  -0.255  1.00  0.00     0.032 A 
ATOM      6  C   UNL     1      -1.346   0.694   1.404  1.00  0.00     0.003 A 
ATOM      7  C   UNL     1      -0.839   1.498   0.383  1.00  0.00     0.006 A 
BRANCH   3   8
ATOM      8  N   UNL     1       0.691  -2.439   0.968  1.00  0.00    -0.270 N 
ATOM      9  O   UNL     1      -0.995  -3.876   2.447  1.00  0.00    -0.206 OA
ATOM     10  S   UNL     1       0.423  -3.383   2.377  1.00  0.00     0.235 S 
ATOM     11  O   UNL     1       0.815  -2.642   3.624  1.00  0.00    -0.206 OA
ATOM     12  C   UNL     1       1.545  -4.690   2.019  1.00  0.00     0.162 C 
ATOM     13  C   UNL     1       1.817  -4.564   0.517  1.00  0.00     0.041 C 
ATOM     14  C   UNL     1       1.635  -3.098   0.067  1.00  0.00     0.136 C 
ENDBRANCH   3   8
ENDBRANCH   1   2
BRANCH   1  15
ATOM     15  N   UNL     1       0.319   1.302  -2.865  1.00  0.00    -0.364 N 
ATOM     16  H   UNL     1       1.057   0.845  -3.445  1.00  0.00     0.162 HD
BRANCH  15  17
ATOM     17  C   UNL     1      -1.035   1.347  -3.343  1.00  0.00     0.155 A 
ATOM     18  N   UNL     1      -2.004   2.019  -2.649  1.00  0.00    -0.217 NA
ATOM     19  C   UNL     1      -1.420   0.714  -4.522  1.00  0.00     0.128 A 
ATOM     20  C   UNL     1      -3.301   2.066  -3.091  1.00  0.00     0.226 A 
ATOM     21  N   UNL     1      -0.709  -0.014  -5.392  1.00  0.00    -0.340 N 
ATOM     22  C   UNL     1      -2.706   0.772  -4.940  1.00  0.00     0.182 A 
ATOM     23  N   UNL     1      -3.663   1.436  -4.250  1.00  0.00    -0.215 NA
ATOM     24  C   UNL     1      -1.619  -0.377  -6.330  1.00  0.00     0.199 A 
ATOM     25  N   UNL     1      -2.873   0.091  -6.086  1.00  0.00    -0.217 NA
ATOM     26  H   UNL     1       0.306  -0.258  -5.365  1.00  0.00     0.168 HD
ENDBRANCH  15  17
ENDBRANCH   1  15
TORSDOF 4
