REMARK SMILES CN1CCC2(CCN(C(=O)c3ccc4cccnn34)CC2)C1=O
REMARK SMILES IDX 1 1 2 2 3 3 4 4 5 5 6 6 7 7 8 8 20 9 21 10 9 11 10 12 22 13
REMARK SMILES IDX 23 14 11 15 12 16 19 17 13 18 18 19 14 20 17 21 15 22 16 23
REMARK H PARENT
ROOT
ATOM      1  C   UNL     1      -0.050  -3.785   2.239  1.00  0.00     0.146 C 
ATOM      2  N   UNL     1      -0.431  -2.391   2.435  1.00  0.00    -0.345 N 
ATOM      3  C   UNL     1      -1.125  -1.879   3.599  1.00  0.00     0.120 C 
ATOM      4  C   UNL     1      -1.204  -0.357   3.391  1.00  0.00     0.038 C 
ATOM      5  C   UNL     1      -0.953  -0.088   1.877  1.00  0.00     0.054 C 
ATOM      6  C   UNL     1      -2.299   0.115   1.142  1.00  0.00     0.038 C 
ATOM      7  C   UNL     1      -2.100   0.342  -0.365  1.00  0.00     0.121 C 
ATOM      8  N   UNL     1      -0.942   1.205  -0.647  1.00  0.00    -0.337 N 
ATOM      9  C   UNL     1      -0.354   1.999   0.441  1.00  0.00     0.121 C 
ATOM     10  C   UNL     1       0.004   1.125   1.659  1.00  0.00     0.038 C 
ATOM     11  C   UNL     1      -0.650   1.532  -2.020  1.00  0.00     0.272 C 
ATOM     12  O   UNL     1      -1.588   1.577  -2.861  1.00  0.00    -0.267 OA
ATOM     13  C   UNL     1      -0.326  -1.380   1.453  1.00  0.00     0.228 C 
ATOM     14  O   UNL     1       0.220  -1.575   0.334  1.00  0.00    -0.274 OA
ENDROOT
BRANCH  11  15
ATOM     15  C   UNL     1       0.723   1.826  -2.478  1.00  0.00     0.130 A 
ATOM     16  C   UNL     1       1.056   2.644  -3.553  1.00  0.00     0.036 A 
ATOM     17  N   UNL     1       1.853   1.307  -1.966  1.00  0.00    -0.228 N 
ATOM     18  C   UNL     1       2.443   2.625  -3.671  1.00  0.00     0.031 A 
ATOM     19  N   UNL     1       1.987   0.423  -0.979  1.00  0.00    -0.176 NA
ATOM     20  C   UNL     1       2.889   1.783  -2.672  1.00  0.00     0.066 A 
ATOM     21  C   UNL     1       3.232  -0.007  -0.628  1.00  0.00     0.134 A 
ATOM     22  C   UNL     1       4.188   1.387  -2.373  1.00  0.00     0.030 A 
ATOM     23  C   UNL     1       4.357   0.475  -1.322  1.00  0.00     0.024 A 
ENDBRANCH  11  15
TORSDOF 1
