REMARK SMILES CCCNC(=O)C1CCN(C(=O)c2cccc(Cl)c2)CC1
REMARK SMILES IDX 4 1 5 2 6 3 3 5 2 6 1 7 7 8 8 9 21 10 9 11 20 12 10 13 11 14
REMARK SMILES IDX 12 15 13 16 14 17 19 18 15 19 17 20 16 21 18 22
REMARK H PARENT 4 4
ROOT
ATOM      1  N   UNL     1       1.263  -1.063  -3.623  1.00  0.00    -0.356 N 
ATOM      2  C   UNL     1       2.275  -1.168  -2.609  1.00  0.00     0.223 C 
ATOM      3  O   UNL     1       3.445  -1.524  -2.918  1.00  0.00    -0.275 OA
ATOM      4  H   UNL     1       0.325  -0.679  -3.370  1.00  0.00     0.163 HD
ENDROOT
BRANCH   1   5
ATOM      5  C   UNL     1       1.502  -1.435  -5.016  1.00  0.00     0.115 C 
BRANCH   5   6
ATOM      6  C   UNL     1       1.558  -2.959  -5.180  1.00  0.00     0.018 C 
ATOM      7  C   UNL     1       0.226  -3.621  -4.833  1.00  0.00     0.006 C 
ENDBRANCH   5   6
ENDBRANCH   1   5
BRANCH   2   8
ATOM      8  C   UNL     1       1.960  -0.838  -1.171  1.00  0.00     0.082 C 
ATOM      9  C   UNL     1       0.784  -1.702  -0.634  1.00  0.00     0.035 C 
ATOM     10  C   UNL     1       1.728   0.680  -1.014  1.00  0.00     0.035 C 
ATOM     11  C   UNL     1      -0.457  -0.875  -0.280  1.00  0.00     0.120 C 
ATOM     12  C   UNL     1       1.133   1.010   0.359  1.00  0.00     0.120 C 
ATOM     13  N   UNL     1      -0.087   0.231   0.616  1.00  0.00    -0.339 N 
ATOM     14  C   UNL     1      -0.864   0.521   1.794  1.00  0.00     0.253 C 
ATOM     15  O   UNL     1      -0.275   0.911   2.840  1.00  0.00    -0.269 OA
BRANCH  14  16
ATOM     16  C   UNL     1      -2.338   0.382   1.810  1.00  0.00     0.041 A 
ATOM     17  C   UNL     1      -3.000   0.013   2.994  1.00  0.00     0.014 A 
ATOM     18  C   UNL     1      -3.098   0.654   0.658  1.00  0.00     0.034 A 
ATOM     19  C   UNL     1      -4.392  -0.111   3.016  1.00  0.00     0.002 A 
ATOM     20  C   UNL     1      -4.491   0.529   0.683  1.00  0.00     0.041 A 
ATOM     21  C   UNL     1      -5.137   0.144   1.862  1.00  0.00     0.020 A 
ATOM     22  Cl  UNL     1      -5.429   0.867  -0.760  1.00  0.00    -0.084 Cl
ENDBRANCH  14  16
ENDBRANCH   2   8
TORSDOF 4
