REMARK SMILES CN1CCC2(CCN(C(=O)c3ccc4cccnn34)CC2)C1=O
REMARK SMILES IDX 1 1 2 2 3 3 4 4 5 5 6 6 7 7 8 8 20 9 21 10 9 11 10 12 22 13
REMARK SMILES IDX 23 14 11 15 12 16 19 17 13 18 18 19 14 20 17 21 15 22 16 23
REMARK H PARENT
ROOT
ATOM      1  C   UNL     1      -1.861   0.330   5.590  1.00  0.00     0.146 C 
ATOM      2  N   UNL     1      -1.429   0.133   4.211  1.00  0.00    -0.345 N 
ATOM      3  C   UNL     1      -2.005  -0.830   3.293  1.00  0.00     0.120 C 
ATOM      4  C   UNL     1      -1.289  -0.601   1.951  1.00  0.00     0.038 C 
ATOM      5  C   UNL     1      -0.003   0.227   2.256  1.00  0.00     0.054 C 
ATOM      6  C   UNL     1       1.267  -0.679   2.282  1.00  0.00     0.038 C 
ATOM      7  C   UNL     1       2.033  -0.685   0.945  1.00  0.00     0.121 C 
ATOM      8  N   UNL     1       1.130  -0.398  -0.176  1.00  0.00    -0.337 N 
ATOM      9  C   UNL     1       0.397   0.878  -0.175  1.00  0.00     0.121 C 
ATOM     10  C   UNL     1       0.175   1.398   1.258  1.00  0.00     0.038 C 
ATOM     11  C   UNL     1       0.786  -1.439  -1.112  1.00  0.00     0.272 C 
ATOM     12  O   UNL     1       0.777  -2.640  -0.729  1.00  0.00    -0.267 OA
ATOM     13  C   UNL     1      -0.290   0.734   3.628  1.00  0.00     0.228 C 
ATOM     14  O   UNL     1       0.419   1.584   4.232  1.00  0.00    -0.274 OA
ENDROOT
BRANCH  11  15
ATOM     15  C   UNL     1       0.437  -1.133  -2.515  1.00  0.00     0.130 A 
ATOM     16  C   UNL     1       0.833  -0.015  -3.243  1.00  0.00     0.036 A 
ATOM     17  N   UNL     1      -0.285  -1.934  -3.321  1.00  0.00    -0.228 N 
ATOM     18  C   UNL     1       0.313  -0.153  -4.527  1.00  0.00     0.031 A 
ATOM     19  N   UNL     1      -0.855  -3.103  -3.031  1.00  0.00    -0.176 NA
ATOM     20  C   UNL     1      -0.369  -1.352  -4.526  1.00  0.00     0.066 A 
ATOM     21  C   UNL     1      -1.558  -3.761  -3.996  1.00  0.00     0.134 A 
ATOM     22  C   UNL     1      -1.069  -1.965  -5.558  1.00  0.00     0.030 A 
ATOM     23  C   UNL     1      -1.676  -3.199  -5.281  1.00  0.00     0.024 A 
ENDBRANCH  11  15
TORSDOF 1
