REMARK SMILES COC(=O)c1ccc(Cn2cc(Cn3cccn3)nn2)cc1C
REMARK SMILES IDX 5 1 6 2 7 3 8 4 21 5 22 6 23 7 3 8 4 9 2 10 1 11 9 12 10 13
REMARK SMILES IDX 11 14 20 15 12 16 19 17 13 18 14 19 15 20 18 21 16 22 17 23
REMARK H PARENT
ROOT
ATOM      1  C   UNL     1      -1.573   0.510   0.791  1.00  0.00     0.063 A 
ATOM      2  C   UNL     1      -1.023  -0.757   1.058  1.00  0.00     0.016 A 
ATOM      3  C   UNL     1       0.332  -1.012   0.848  1.00  0.00     0.006 A 
ATOM      4  C   UNL     1       1.176  -0.001   0.378  1.00  0.00    -0.026 A 
ATOM      5  C   UNL     1       0.646   1.266   0.104  1.00  0.00     0.010 A 
ATOM      6  C   UNL     1      -0.716   1.544   0.322  1.00  0.00    -0.036 A 
ATOM      7  C   UNL     1      -1.212   2.941   0.047  1.00  0.00     0.045 C 
ENDROOT
BRANCH   1   8
ATOM      8  C   UNL     1      -3.031   0.699   1.013  1.00  0.00     0.338 C 
ATOM      9  O   UNL     1      -3.663   1.615   0.419  1.00  0.00    -0.246 OA
BRANCH   8  10
ATOM     10  O   UNL     1      -3.716  -0.174   1.867  1.00  0.00    -0.465 OA
ATOM     11  C   UNL     1      -5.112  -0.067   2.118  1.00  0.00     0.282 C 
ENDBRANCH   8  10
ENDBRANCH   1   8
BRANCH   4  12
ATOM     12  C   UNL     1       2.623  -0.295   0.093  1.00  0.00     0.181 C 
BRANCH  12  13
ATOM     13  N   UNL     1       2.774  -0.730  -1.290  1.00  0.00    -0.248 N 
ATOM     14  C   UNL     1       2.569  -1.969  -1.766  1.00  0.00     0.137 A 
ATOM     15  N   UNL     1       3.003   0.082  -2.310  1.00  0.00    -0.067 NA
ATOM     16  C   UNL     1       2.716  -1.878  -3.132  1.00  0.00     0.104 A 
ATOM     17  N   UNL     1       2.973  -0.593  -3.450  1.00  0.00    -0.133 NA
BRANCH  16  18
ATOM     18  C   UNL     1       2.475  -2.966  -4.127  1.00  0.00     0.203 C 
BRANCH  18  19
ATOM     19  N   UNL     1       1.049  -3.060  -4.418  1.00  0.00    -0.267 N 
ATOM     20  C   UNL     1       0.142  -3.758  -3.710  1.00  0.00     0.109 A 
ATOM     21  N   UNL     1       0.446  -2.380  -5.380  1.00  0.00    -0.181 NA
ATOM     22  C   UNL     1      -1.101  -3.529  -4.257  1.00  0.00     0.042 A 
ATOM     23  C   UNL     1      -0.870  -2.659  -5.306  1.00  0.00     0.135 A 
ENDBRANCH  18  19
ENDBRANCH  16  18
ENDBRANCH  12  13
ENDBRANCH   4  12
TORSDOF 6
