REMARK SMILES C[C@H](NC(=O)c1ccc(Oc2ccc(Cl)cc2)cc1)[C@H]1CCNC1
REMARK SMILES IDX 6 1 7 2 8 3 9 4 18 5 19 6 4 7 3 8 5 9 2 11 1 12 20 13 21 14
REMARK SMILES IDX 24 15 22 16 23 17 10 19 11 20 12 21 17 22 13 23 16 24 14 25
REMARK SMILES IDX 15 26
REMARK H PARENT 3 10 23 18
ROOT
ATOM      1  C   UNL     1      -0.431  -0.218   1.770  1.00  0.00     0.040 A 
ATOM      2  C   UNL     1      -0.570   0.258   0.454  1.00  0.00     0.017 A 
ATOM      3  C   UNL     1      -1.188   1.487   0.205  1.00  0.00     0.048 A 
ATOM      4  C   UNL     1      -1.663   2.271   1.270  1.00  0.00     0.127 A 
ATOM      5  C   UNL     1      -1.537   1.795   2.578  1.00  0.00     0.048 A 
ATOM      6  C   UNL     1      -0.917   0.568   2.830  1.00  0.00     0.017 A 
ENDROOT
BRANCH   1   7
ATOM      7  C   UNL     1       0.238  -1.511   2.052  1.00  0.00     0.251 C 
ATOM      8  N   UNL     1       0.312  -2.542   1.053  1.00  0.00    -0.349 N 
ATOM      9  O   UNL     1       0.736  -1.711   3.194  1.00  0.00    -0.269 OA
ATOM     10  H   UNL     1      -0.300  -2.474   0.209  1.00  0.00     0.164 HD
BRANCH   8  11
ATOM     11  C   UNL     1       1.253  -3.667   1.139  1.00  0.00     0.083 C 
ATOM     12  C   UNL     1       0.544  -4.974   0.763  1.00  0.00     0.031 C 
BRANCH  11  13
ATOM     13  C   UNL     1       2.517  -3.423   0.265  1.00  0.00     0.026 C 
ATOM     14  C   UNL     1       2.214  -3.085  -1.197  1.00  0.00     0.022 C 
ATOM     15  C   UNL     1       3.330  -2.227   0.755  1.00  0.00     0.086 C 
ATOM     16  C   UNL     1       2.597  -1.619  -1.371  1.00  0.00     0.081 C 
ATOM     17  N   UNL     1       2.935  -1.081  -0.055  1.00  0.00    -0.316 NA
ATOM     18  H   UNL     1       3.748  -0.427  -0.145  1.00  0.00     0.122 HD
ENDBRANCH  11  13
ENDBRANCH   8  11
ENDBRANCH   1   7
BRANCH   4  19
ATOM     19  O   UNL     1      -2.302   3.502   1.058  1.00  0.00    -0.457 OA
BRANCH  19  20
ATOM     20  C   UNL     1      -2.027   4.391   0.009  1.00  0.00     0.127 A 
ATOM     21  C   UNL     1      -3.057   5.212  -0.465  1.00  0.00     0.048 A 
ATOM     22  C   UNL     1      -0.738   4.514  -0.545  1.00  0.00     0.048 A 
ATOM     23  C   UNL     1      -2.818   6.122  -1.500  1.00  0.00     0.024 A 
ATOM     24  C   UNL     1      -0.501   5.424  -1.579  1.00  0.00     0.024 A 
ATOM     25  C   UNL     1      -1.540   6.226  -2.061  1.00  0.00     0.041 A 
ATOM     26  Cl  UNL     1      -1.241   7.369  -3.357  1.00  0.00    -0.084 Cl
ENDBRANCH  19  20
ENDBRANCH   4  19
TORSDOF 5
