REMARK SMILES Cc1cc(F)c2nc(O)cc(C(=O)N3CC[C@@H](Nc4ccccc4)C3)c2c1
REMARK SMILES IDX 12 1 13 2 11 3 2 4 3 5 27 6 4 7 26 8 6 9 7 10 10 11 8 12
REMARK SMILES IDX 1 13 5 14 9 15 14 17 15 18 25 19 16 20 17 21 18 22 19 24
REMARK SMILES IDX 20 25 24 26 21 27 23 28 22 29
REMARK H PARENT 9 16 18 23
ROOT
ATOM      1  C   UNL     1       0.520  -0.790   0.648  1.00  0.00     0.254 C 
ATOM      2  O   UNL     1       0.982  -0.640   1.812  1.00  0.00    -0.269 OA
ENDROOT
BRANCH   1   3
ATOM      3  C   UNL     1       1.453  -1.057  -0.467  1.00  0.00     0.054 A 
ATOM      4  C   UNL     1       3.123  -4.293   0.445  1.00  0.00    -0.047 A 
ATOM      5  C   UNL     1       3.994  -4.433  -0.644  1.00  0.00     0.045 A 
ATOM      6  C   UNL     1       2.263  -3.185   0.508  1.00  0.00     0.014 A 
ATOM      7  C   UNL     1       4.029  -3.466  -1.650  1.00  0.00     0.149 A 
ATOM      8  C   UNL     1       2.296  -2.194  -0.494  1.00  0.00     0.017 A 
ATOM      9  C   UNL     1       3.186  -2.351  -1.585  1.00  0.00     0.111 A 
ATOM     10  N   UNL     1       3.217  -1.424  -2.579  1.00  0.00    -0.210 NA
ATOM     11  C   UNL     1       1.522  -0.128  -1.514  1.00  0.00     0.082 A 
ATOM     12  C   UNL     1       2.414  -0.330  -2.571  1.00  0.00     0.212 A 
ATOM     13  C   UNL     1       3.054  -5.360   1.497  1.00  0.00     0.044 C 
ATOM     14  F   UNL     1       4.879  -3.620  -2.697  1.00  0.00    -0.205 F 
BRANCH  12  15
ATOM     15  O   UNL     1       2.491   0.584  -3.618  1.00  0.00    -0.493 OA
ATOM     16  H   UNL     1       1.905   1.411  -3.644  1.00  0.00     0.295 HD
ENDBRANCH  12  15
ENDBRANCH   1   3
BRANCH   1  17
ATOM     17  N   UNL     1      -0.893  -0.667   0.420  1.00  0.00    -0.336 N 
ATOM     18  C   UNL     1      -1.803  -0.121   1.413  1.00  0.00     0.122 C 
ATOM     19  C   UNL     1      -1.563  -1.161  -0.772  1.00  0.00     0.144 C 
ATOM     20  C   UNL     1      -3.187  -0.117   0.770  1.00  0.00     0.048 C 
ATOM     21  C   UNL     1      -3.054  -0.905  -0.541  1.00  0.00     0.100 C 
BRANCH  21  22
ATOM     22  N   UNL     1      -3.700  -0.228  -1.678  1.00  0.00    -0.380 N 
ATOM     23  H   UNL     1      -4.490  -0.750  -2.121  1.00  0.00     0.160 HD
BRANCH  22  24
ATOM     24  C   UNL     1      -3.345   1.049  -2.256  1.00  0.00     0.034 A 
ATOM     25  C   UNL     1      -4.053   1.499  -3.385  1.00  0.00     0.025 A 
ATOM     26  C   UNL     1      -2.314   1.863  -1.739  1.00  0.00     0.025 A 
ATOM     27  C   UNL     1      -3.741   2.723  -3.984  1.00  0.00     0.002 A 
ATOM     28  C   UNL     1      -2.004   3.085  -2.343  1.00  0.00     0.002 A 
ATOM     29  C   UNL     1      -2.716   3.515  -3.464  1.00  0.00     0.000 A 
ENDBRANCH  22  24
ENDBRANCH  21  22
ENDBRANCH   1  17
TORSDOF 5
