REMARK SMILES CN1CCc2ccc(NC(=O)CN3CCCNC3=O)cc2C1=O
REMARK SMILES IDX 9 1 10 2 11 3 8 5 2 6 3 7 22 8 4 9 21 10 23 11 5 12 20 13
REMARK SMILES IDX 6 14 7 15 1 16 12 17 13 18 14 19 18 20 15 21 17 22 19 23
REMARK SMILES IDX 16 24
REMARK H PARENT 9 4 17 25
ROOT
ATOM      1  N   UNL     1       0.122   0.948   0.901  1.00  0.00    -0.325 N 
ATOM      2  C   UNL     1       0.846   1.856   0.056  1.00  0.00     0.244 C 
ATOM      3  O   UNL     1       0.688   1.834  -1.195  1.00  0.00    -0.273 OA
ATOM      4  H   UNL     1       0.466   0.815   1.879  1.00  0.00     0.169 HD
ENDROOT
BRANCH   1   5
ATOM      5  C   UNL     1      -0.965   0.122   0.452  1.00  0.00     0.042 A 
ATOM      6  N   UNL     1      -4.903  -0.705  -2.437  1.00  0.00    -0.341 N 
ATOM      7  C   UNL     1      -4.709  -2.139  -2.190  1.00  0.00     0.124 C 
ATOM      8  C   UNL     1      -3.938   0.227  -1.917  1.00  0.00     0.253 C 
ATOM      9  C   UNL     1      -4.287  -2.383  -0.736  1.00  0.00     0.058 C 
ATOM     10  C   UNL     1      -2.956  -0.236  -0.912  1.00  0.00     0.045 A 
ATOM     11  O   UNL     1      -3.939   1.427  -2.305  1.00  0.00    -0.269 OA
ATOM     12  C   UNL     1      -3.103  -1.524  -0.360  1.00  0.00    -0.033 A 
ATOM     13  C   UNL     1      -1.891   0.583  -0.501  1.00  0.00     0.040 A 
ATOM     14  C   UNL     1      -2.201  -1.963   0.619  1.00  0.00     0.007 A 
ATOM     15  C   UNL     1      -1.142  -1.147   1.020  1.00  0.00     0.026 A 
ATOM     16  C   UNL     1      -6.028  -0.226  -3.244  1.00  0.00     0.147 C 
ENDBRANCH   1   5
BRANCH   2  17
ATOM     17  C   UNL     1       1.867   2.777   0.650  1.00  0.00     0.221 C 
BRANCH  17  18
ATOM     18  N   UNL     1       3.167   2.102   0.743  1.00  0.00    -0.315 N 
ATOM     19  C   UNL     1       3.486   1.315   1.942  1.00  0.00     0.124 C 
ATOM     20  C   UNL     1       4.031   2.017  -0.408  1.00  0.00     0.317 C 
ATOM     21  C   UNL     1       5.000   1.180   2.127  1.00  0.00     0.043 C 
ATOM     22  N   UNL     1       5.282   1.329  -0.312  1.00  0.00    -0.338 N 
ATOM     23  O   UNL     1       3.706   2.564  -1.496  1.00  0.00    -0.249 OA
ATOM     24  C   UNL     1       5.635   0.562   0.880  1.00  0.00     0.119 C 
ATOM     25  H   UNL     1       5.897   1.264  -1.154  1.00  0.00     0.165 HD
ENDBRANCH  17  18
ENDBRANCH   2  17
TORSDOF 3
