REMARK SMILES COC(=O)c1ccc(Cn2cc(Cn3cccn3)nn2)cc1C
REMARK SMILES IDX 5 1 6 2 7 3 8 4 21 5 22 6 23 7 3 8 4 9 2 10 1 11 9 12 10 13
REMARK SMILES IDX 11 14 20 15 12 16 19 17 13 18 14 19 15 20 18 21 16 22 17 23
REMARK H PARENT
ROOT
ATOM      1  C   UNL     1       0.390  -0.869   2.675  1.00  0.00     0.063 A 
ATOM      2  C   UNL     1      -0.507  -1.790   2.104  1.00  0.00     0.016 A 
ATOM      3  C   UNL     1      -1.562  -1.361   1.299  1.00  0.00     0.006 A 
ATOM      4  C   UNL     1      -1.756   0.002   1.054  1.00  0.00    -0.026 A 
ATOM      5  C   UNL     1      -0.857   0.932   1.593  1.00  0.00     0.010 A 
ATOM      6  C   UNL     1       0.222   0.516   2.394  1.00  0.00    -0.036 A 
ATOM      7  C   UNL     1       1.173   1.564   2.912  1.00  0.00     0.045 C 
ENDROOT
BRANCH   1   8
ATOM      8  C   UNL     1       1.476  -1.397   3.541  1.00  0.00     0.338 C 
ATOM      9  O   UNL     1       2.032  -0.662   4.402  1.00  0.00    -0.246 OA
BRANCH   8  10
ATOM     10  O   UNL     1       1.863  -2.737   3.420  1.00  0.00    -0.465 OA
ATOM     11  C   UNL     1       2.884  -3.318   4.222  1.00  0.00     0.282 C 
ENDBRANCH   8  10
ENDBRANCH   1   8
BRANCH   4  12
ATOM     12  C   UNL     1      -2.863   0.460   0.145  1.00  0.00     0.181 C 
BRANCH  12  13
ATOM     13  N   UNL     1      -2.367   0.556  -1.223  1.00  0.00    -0.248 N 
ATOM     14  C   UNL     1      -1.708   1.594  -1.764  1.00  0.00     0.137 A 
ATOM     15  N   UNL     1      -2.366  -0.444  -2.091  1.00  0.00    -0.067 NA
ATOM     16  C   UNL     1      -1.329   1.185  -3.023  1.00  0.00     0.104 A 
ATOM     17  N   UNL     1      -1.737  -0.087  -3.202  1.00  0.00    -0.133 NA
BRANCH  16  18
ATOM     18  C   UNL     1      -0.464   1.941  -3.978  1.00  0.00     0.203 C 
BRANCH  18  19
ATOM     19  N   UNL     1       0.938   1.772  -3.612  1.00  0.00    -0.267 N 
ATOM     20  C   UNL     1       1.611   2.500  -2.701  1.00  0.00     0.109 A 
ATOM     21  N   UNL     1       1.708   0.799  -4.071  1.00  0.00    -0.181 NA
ATOM     22  C   UNL     1       2.881   1.979  -2.585  1.00  0.00     0.042 A 
ATOM     23  C   UNL     1       2.905   0.912  -3.463  1.00  0.00     0.135 A 
ENDBRANCH  18  19
ENDBRANCH  16  18
ENDBRANCH  12  13
ENDBRANCH   4  12
TORSDOF 6
