REMARK SMILES Cc1cccc(N(C)C(=O)c2cc(C)n(C(C)(C)C)n2)c1C
REMARK SMILES IDX 9 1 10 2 11 3 13 4 12 5 15 6 20 7 14 8 16 9 17 10 18 11
REMARK SMILES IDX 19 12 7 13 8 14 6 15 5 16 21 17 4 18 2 19 3 20 22 21 1 22
REMARK H PARENT
ROOT
ATOM      1  C   UNL     1       0.469   1.347  -2.752  1.00  0.00     0.278 C 
ATOM      2  O   UNL     1       0.443   1.766  -3.941  1.00  0.00    -0.267 OA
ENDROOT
BRANCH   1   3
ATOM      3  C   UNL     1      -0.759   0.758  -2.179  1.00  0.00     0.151 A 
ATOM      4  C   UNL     1      -2.811   0.083  -1.867  1.00  0.00     0.037 A 
ATOM      5  C   UNL     1      -2.002   0.737  -2.776  1.00  0.00     0.059 A 
ATOM      6  N   UNL     1      -2.062  -0.291  -0.792  1.00  0.00    -0.264 N 
ATOM      7  N   UNL     1      -0.822   0.137  -0.989  1.00  0.00    -0.167 NA
ATOM      8  C   UNL     1      -4.265  -0.198  -2.105  1.00  0.00     0.066 C 
BRANCH   6   9
ATOM      9  C   UNL     1      -2.478  -0.950   0.472  1.00  0.00     0.055 C 
ATOM     10  C   UNL     1      -1.228  -1.447   1.240  1.00  0.00     0.036 C 
ATOM     11  C   UNL     1      -3.377  -2.176   0.200  1.00  0.00     0.036 C 
ATOM     12  C   UNL     1      -3.214   0.067   1.363  1.00  0.00     0.036 C 
ENDBRANCH   6   9
ENDBRANCH   1   3
BRANCH   1  13
ATOM     13  N   UNL     1       1.694   1.431  -1.993  1.00  0.00    -0.310 N 
ATOM     14  C   UNL     1       2.954   1.725  -2.679  1.00  0.00     0.153 C 
BRANCH  13  15
ATOM     15  C   UNL     1       1.665   1.514  -0.558  1.00  0.00     0.047 A 
ATOM     16  C   UNL     1       1.134   2.662   0.043  1.00  0.00     0.026 A 
ATOM     17  C   UNL     1       2.140   0.449   0.246  1.00  0.00    -0.024 A 
ATOM     18  C   UNL     1       1.083   2.775   1.430  1.00  0.00     0.002 A 
ATOM     19  C   UNL     1       2.123   0.589   1.659  1.00  0.00    -0.046 A 
ATOM     20  C   UNL     1       1.575   1.748   2.233  1.00  0.00     0.004 A 
ATOM     21  C   UNL     1       2.674  -0.811  -0.394  1.00  0.00     0.047 C 
ATOM     22  C   UNL     1       2.629  -0.503   2.566  1.00  0.00     0.044 C 
ENDBRANCH  13  15
ENDBRANCH   1  13
TORSDOF 4
