REMARK SMILES CN(C)C(=O)[C@H](NC(=O)Cc1csc(N2CCCNC2=O)n1)c1ccccc1
REMARK SMILES IDX 7 1 8 2 9 3 6 5 4 6 2 7 5 8 1 9 3 10 23 11 24 12 28 13 25 14
REMARK SMILES IDX 27 15 26 16 10 17 11 18 12 19 22 20 13 21 14 22 15 23 16 24
REMARK SMILES IDX 20 25 17 26 19 27 21 28 18 29
REMARK H PARENT 7 4 19 30
ROOT
ATOM      1  N   UNL     1       1.604  -1.816  -0.664  1.00  0.00    -0.340 N 
ATOM      2  C   UNL     1       1.307  -0.837  -1.670  1.00  0.00     0.226 C 
ATOM      3  O   UNL     1       1.797   0.324  -1.594  1.00  0.00    -0.275 OA
ATOM      4  H   UNL     1       1.281  -2.799  -0.815  1.00  0.00     0.164 HD
ENDROOT
BRANCH   1   5
ATOM      5  C   UNL     1       2.372  -1.492   0.542  1.00  0.00     0.202 C 
BRANCH   5   6
ATOM      6  C   UNL     1       2.122  -2.542   1.607  1.00  0.00     0.249 C 
ATOM      7  N   UNL     1       0.907  -2.550   2.392  1.00  0.00    -0.347 N 
ATOM      8  O   UNL     1       2.962  -3.473   1.760  1.00  0.00    -0.272 OA
ATOM      9  C   UNL     1      -0.143  -1.547   2.176  1.00  0.00     0.146 C 
ATOM     10  C   UNL     1       0.694  -3.629   3.364  1.00  0.00     0.146 C 
ENDBRANCH   5   6
BRANCH   5  11
ATOM     11  C   UNL     1       3.849  -1.362   0.219  1.00  0.00    -0.016 A 
ATOM     12  C   UNL     1       4.485  -2.264  -0.657  1.00  0.00     0.006 A 
ATOM     13  C   UNL     1       4.618  -0.363   0.845  1.00  0.00     0.006 A 
ATOM     14  C   UNL     1       5.855  -2.151  -0.915  1.00  0.00     0.000 A 
ATOM     15  C   UNL     1       5.988  -0.257   0.582  1.00  0.00     0.000 A 
ATOM     16  C   UNL     1       6.605  -1.145  -0.301  1.00  0.00     0.000 A 
ENDBRANCH   5  11
ENDBRANCH   1   5
BRANCH   2  17
ATOM     17  C   UNL     1       0.414  -1.187  -2.824  1.00  0.00     0.157 C 
BRANCH  17  18
ATOM     18  C   UNL     1      -0.775  -0.274  -2.853  1.00  0.00     0.063 A 
ATOM     19  C   UNL     1      -0.921   0.752  -3.784  1.00  0.00     0.093 A 
ATOM     20  N   UNL     1      -1.774  -0.365  -1.931  1.00  0.00    -0.224 NA
ATOM     21  S   UNL     1      -2.353   1.557  -3.437  1.00  0.00    -0.105 S 
ATOM     22  C   UNL     1      -2.728   0.575  -2.119  1.00  0.00     0.193 A 
BRANCH  22  23
ATOM     23  N   UNL     1      -3.896   0.718  -1.280  1.00  0.00    -0.270 N 
ATOM     24  C   UNL     1      -4.912   1.725  -1.636  1.00  0.00     0.132 C 
ATOM     25  C   UNL     1      -4.016   0.002  -0.029  1.00  0.00     0.323 C 
ATOM     26  C   UNL     1      -6.267   1.429  -0.986  1.00  0.00     0.043 C 
ATOM     27  N   UNL     1      -5.143   0.235   0.823  1.00  0.00    -0.338 N 
ATOM     28  O   UNL     1      -3.155  -0.851   0.316  1.00  0.00    -0.248 OA
ATOM     29  C   UNL     1      -6.105   1.288   0.524  1.00  0.00     0.119 C 
ATOM     30  H   UNL     1      -5.274  -0.351   1.679  1.00  0.00     0.165 HD
ENDBRANCH  22  23
ENDBRANCH  17  18
ENDBRANCH   2  17
TORSDOF 6
