REMARK SMILES CCCNC(=O)C1CCN(C(=O)c2cccc(Cl)c2)CC1
REMARK SMILES IDX 4 1 5 2 6 3 3 5 2 6 1 7 7 8 8 9 21 10 9 11 20 12 10 13 11 14
REMARK SMILES IDX 12 15 13 16 14 17 19 18 15 19 17 20 16 21 18 22
REMARK H PARENT 4 4
ROOT
ATOM      1  N   UNL     1      -2.531  -0.106  -1.907  1.00  0.00    -0.356 N 
ATOM      2  C   UNL     1      -1.649   0.841  -1.291  1.00  0.00     0.223 C 
ATOM      3  O   UNL     1      -2.110   1.692  -0.481  1.00  0.00    -0.275 OA
ATOM      4  H   UNL     1      -2.128  -0.801  -2.576  1.00  0.00     0.163 HD
ENDROOT
BRANCH   1   5
ATOM      5  C   UNL     1      -3.966  -0.112  -1.620  1.00  0.00     0.115 C 
BRANCH   5   6
ATOM      6  C   UNL     1      -4.681  -1.268  -2.331  1.00  0.00     0.018 C 
ATOM      7  C   UNL     1      -4.314  -2.625  -1.732  1.00  0.00     0.006 C 
ENDBRANCH   5   6
ENDBRANCH   1   5
BRANCH   2   8
ATOM      8  C   UNL     1      -0.165   0.777  -1.583  1.00  0.00     0.082 C 
ATOM      9  C   UNL     1       0.508  -0.359  -0.785  1.00  0.00     0.035 C 
ATOM     10  C   UNL     1       0.565   2.129  -1.376  1.00  0.00     0.035 C 
ATOM     11  C   UNL     1       0.707   0.017   0.686  1.00  0.00     0.120 C 
ATOM     12  C   UNL     1       0.829   2.446   0.105  1.00  0.00     0.120 C 
ATOM     13  N   UNL     1       1.435   1.287   0.765  1.00  0.00    -0.339 N 
ATOM     14  C   UNL     1       2.823   1.311   1.148  1.00  0.00     0.253 C 
ATOM     15  O   UNL     1       3.655   1.916   0.417  1.00  0.00    -0.269 OA
BRANCH  14  16
ATOM     16  C   UNL     1       3.290   0.649   2.389  1.00  0.00     0.041 A 
ATOM     17  C   UNL     1       2.405   0.419   3.458  1.00  0.00     0.014 A 
ATOM     18  C   UNL     1       4.638   0.268   2.526  1.00  0.00     0.034 A 
ATOM     19  C   UNL     1       2.854  -0.197   4.629  1.00  0.00     0.002 A 
ATOM     20  C   UNL     1       5.084  -0.348   3.700  1.00  0.00     0.041 A 
ATOM     21  C   UNL     1       4.191  -0.582   4.750  1.00  0.00     0.020 A 
ATOM     22  Cl  UNL     1       6.764  -0.828   3.856  1.00  0.00    -0.084 Cl
ENDBRANCH  14  16
ENDBRANCH   2   8
TORSDOF 4
