REMARK SMILES Cc1nc(N2CC[C@H](CO)C2)c2cnn(-c3ccccc3)c2n1
REMARK SMILES IDX 5 1 6 2 7 3 8 4 11 5 4 6 2 7 3 8 23 9 22 10 12 11 15 12
REMARK SMILES IDX 13 13 14 14 1 15 16 16 17 17 21 18 18 19 20 20 19 21 9 22
REMARK SMILES IDX 10 23
REMARK H PARENT 10 24
ROOT
ATOM      1  N   UNL     1      -2.164  -1.009   1.409  1.00  0.00    -0.356 N 
ATOM      2  C   UNL     1      -3.564  -0.679   1.632  1.00  0.00     0.118 C 
ATOM      3  C   UNL     1      -3.965  -1.395   2.914  1.00  0.00     0.029 C 
ATOM      4  C   UNL     1      -2.920  -2.499   3.096  1.00  0.00     0.036 C 
ATOM      5  C   UNL     1      -1.679  -2.011   2.345  1.00  0.00     0.124 C 
ENDROOT
BRANCH   1   6
ATOM      6  C   UNL     1      -1.413  -0.442   0.315  1.00  0.00     0.143 A 
ATOM      7  C   UNL     1      -1.420   0.865  -1.698  1.00  0.00     0.130 A 
ATOM      8  N   UNL     1      -2.068   0.300  -0.630  1.00  0.00    -0.215 NA
ATOM      9  N   UNL     1      -0.077   0.685  -1.859  1.00  0.00    -0.213 NA
ATOM     10  C   UNL     1       0.595  -0.026  -0.923  1.00  0.00     0.168 A 
ATOM     11  C   UNL     1      -0.028  -0.602   0.145  1.00  0.00     0.082 A 
ATOM     12  N   UNL     1       1.909  -0.320  -0.912  1.00  0.00    -0.215 N 
ATOM     13  C   UNL     1       0.984  -1.264   0.822  1.00  0.00     0.150 A 
ATOM     14  N   UNL     1       2.147  -1.081   0.150  1.00  0.00    -0.174 NA
ATOM     15  C   UNL     1      -2.196   1.622  -2.722  1.00  0.00     0.090 C 
BRANCH  12  16
ATOM     16  C   UNL     1       2.920   0.064  -1.863  1.00  0.00     0.067 A 
ATOM     17  C   UNL     1       4.022  -0.779  -2.088  1.00  0.00     0.028 A 
ATOM     18  C   UNL     1       2.848   1.290  -2.551  1.00  0.00     0.028 A 
ATOM     19  C   UNL     1       5.017  -0.416  -3.002  1.00  0.00     0.002 A 
ATOM     20  C   UNL     1       3.846   1.649  -3.463  1.00  0.00     0.002 A 
ATOM     21  C   UNL     1       4.928   0.795  -3.691  1.00  0.00     0.000 A 
ENDBRANCH  12  16
ENDBRANCH   1   6
BRANCH   4  22
ATOM     22  C   UNL     1      -2.654  -2.857   4.569  1.00  0.00     0.161 C 
BRANCH  22  23
ATOM     23  O   UNL     1      -2.217  -1.740   5.300  1.00  0.00    -0.396 OA
ATOM     24  H   UNL     1      -1.233  -1.818   5.397  1.00  0.00     0.210 HD
ENDBRANCH  22  23
ENDBRANCH   4  22
TORSDOF 4
