REMARK SMILES CC[C@](C)(O)Cc1cn(Cc2cc(C(F)(F)F)ncc2F)nn1
REMARK SMILES IDX 7 1 8 2 9 3 22 4 23 5 6 6 3 7 4 8 2 9 1 10 5 11 10 13 11 14
REMARK SMILES IDX 12 15 20 16 13 17 19 18 18 19 21 20 14 21 15 22 16 23 17 24
REMARK H PARENT 5 12
ROOT
ATOM      1  C   UNL     1      -0.867  -0.808   0.529  1.00  0.00     0.086 A 
ATOM      2  C   UNL     1      -0.031   0.067  -0.129  1.00  0.00     0.135 A 
ATOM      3  N   UNL     1       0.761  -0.693  -0.903  1.00  0.00    -0.248 N 
ATOM      4  N   UNL     1       0.440  -1.964  -0.719  1.00  0.00    -0.067 NA
ATOM      5  N   UNL     1      -0.559  -2.064   0.146  1.00  0.00    -0.135 NA
ENDROOT
BRANCH   1   6
ATOM      6  C   UNL     1      -1.960  -0.453   1.497  1.00  0.00     0.094 C 
BRANCH   6   7
ATOM      7  C   UNL     1      -3.358  -0.288   0.834  1.00  0.00     0.067 C 
ATOM      8  C   UNL     1      -3.800  -1.610   0.165  1.00  0.00     0.042 C 
BRANCH   7   9
ATOM      9  C   UNL     1      -3.319   0.865  -0.206  1.00  0.00     0.032 C 
ATOM     10  C   UNL     1      -4.692   1.233  -0.775  1.00  0.00     0.007 C 
ENDBRANCH   7   9
BRANCH   7  11
ATOM     11  O   UNL     1      -4.286   0.058   1.837  1.00  0.00    -0.390 OA
ATOM     12  H   UNL     1      -4.334  -0.693   2.486  1.00  0.00     0.211 HD
ENDBRANCH   7  11
ENDBRANCH   6   7
ENDBRANCH   1   6
BRANCH   3  13
ATOM     13  C   UNL     1       1.860  -0.232  -1.744  1.00  0.00     0.184 C 
BRANCH  13  14
ATOM     14  C   UNL     1       3.108  -0.083  -0.918  1.00  0.00     0.013 A 
ATOM     15  C   UNL     1       3.399   1.142  -0.301  1.00  0.00     0.042 A 
ATOM     16  C   UNL     1       3.957  -1.179  -0.696  1.00  0.00     0.146 A 
ATOM     17  C   UNL     1       4.543   1.262   0.502  1.00  0.00     0.144 A 
ATOM     18  C   UNL     1       5.086  -1.021   0.110  1.00  0.00     0.151 A 
ATOM     19  N   UNL     1       5.352   0.181   0.685  1.00  0.00    -0.249 NA
ATOM     20  F   UNL     1       3.693  -2.390  -1.250  1.00  0.00    -0.205 F 
BRANCH  17  21
ATOM     21  C   UNL     1       4.868   2.566   1.168  1.00  0.00     0.433 C 
ATOM     22  F   UNL     1       6.050   2.467   1.881  1.00  0.00    -0.165 F 
ATOM     23  F   UNL     1       3.849   2.911   2.036  1.00  0.00    -0.165 F 
ATOM     24  F   UNL     1       5.005   3.556   0.211  1.00  0.00    -0.165 F 
ENDBRANCH  17  21
ENDBRANCH  13  14
ENDBRANCH   3  13
TORSDOF 7
