REMARK SMILES CCN(C1CCCCC1)S(=O)(=O)CCNC(=O)Nc1ccn(-c2cccc(F)c2C#N)n1
REMARK SMILES IDX 13 1 10 2 11 3 12 4 3 5 2 6 1 7 4 8 5 9 9 10 6 11 8 12 7 13
REMARK SMILES IDX 14 14 15 15 16 16 17 17 18 18 19 21 20 22 32 23 21 24 22 25
REMARK SMILES IDX 23 26 24 27 29 28 25 29 27 30 30 31 26 32 31 33 28 34
REMARK H PARENT 15 19 18 20
ROOT
ATOM      1  C   UNL     1       1.741   1.589  -2.093  1.00  0.00     0.175 C 
ENDROOT
BRANCH   1   2
ATOM      2  S   UNL     1       1.266   2.502  -3.558  1.00  0.00     0.216 S 
ATOM      3  O   UNL     1       1.640   3.944  -3.341  1.00  0.00    -0.212 OA
ATOM      4  O   UNL     1       2.056   1.998  -4.735  1.00  0.00    -0.212 OA
BRANCH   2   5
ATOM      5  N   UNL     1      -0.471   2.311  -3.832  1.00  0.00    -0.199 NA
BRANCH   5   6
ATOM      6  C   UNL     1      -1.079   3.650  -4.033  1.00  0.00     0.099 C 
ATOM      7  C   UNL     1      -1.391   4.300  -2.685  1.00  0.00     0.022 C 
ENDBRANCH   5   6
BRANCH   5   8
ATOM      8  C   UNL     1      -0.760   1.340  -4.937  1.00  0.00     0.073 C 
ATOM      9  C   UNL     1      -2.279   1.146  -5.204  1.00  0.00     0.020 C 
ATOM     10  C   UNL     1      -0.217  -0.088  -4.619  1.00  0.00     0.020 C 
ATOM     11  C   UNL     1      -3.039   0.744  -3.924  1.00  0.00     0.002 C 
ATOM     12  C   UNL     1      -1.102  -0.904  -3.641  1.00  0.00     0.002 C 
ATOM     13  C   UNL     1      -2.172  -0.059  -2.932  1.00  0.00     0.000 C 
ENDBRANCH   5   8
ENDBRANCH   2   5
ENDBRANCH   1   2
BRANCH   1  14
ATOM     14  C   UNL     1       1.083   2.173  -0.842  1.00  0.00     0.135 C 
BRANCH  14  15
ATOM     15  N   UNL     1       1.452   1.388   0.334  1.00  0.00    -0.337 N 
ATOM     16  C   UNL     1       0.892   0.096   0.603  1.00  0.00     0.320 C 
ATOM     17  O   UNL     1      -0.069  -0.332  -0.094  1.00  0.00    -0.248 OA
ATOM     18  N   UNL     1       1.458  -0.720   1.637  1.00  0.00    -0.291 N 
ATOM     19  H   UNL     1       2.150   1.784   1.004  1.00  0.00     0.165 HD
ATOM     20  H   UNL     1       2.385  -0.442   2.035  1.00  0.00     0.173 HD
BRANCH  18  21
ATOM     21  C   UNL     1       0.903  -1.975   2.048  1.00  0.00     0.156 A 
ATOM     22  C   UNL     1      -0.435  -2.330   2.026  1.00  0.00     0.069 A 
ATOM     23  N   UNL     1       1.649  -2.985   2.539  1.00  0.00    -0.150 NA
ATOM     24  C   UNL     1      -0.446  -3.618   2.522  1.00  0.00     0.117 A 
ATOM     25  N   UNL     1       0.821  -3.977   2.827  1.00  0.00    -0.237 N 
BRANCH  25  26
ATOM     26  C   UNL     1       1.262  -5.272   3.273  1.00  0.00     0.085 A 
ATOM     27  C   UNL     1       2.399  -5.843   2.673  1.00  0.00     0.030 A 
ATOM     28  C   UNL     1       0.581  -5.991   4.282  1.00  0.00     0.113 A 
ATOM     29  C   UNL     1       2.841  -7.112   3.048  1.00  0.00     0.005 A 
ATOM     30  C   UNL     1       1.034  -7.269   4.654  1.00  0.00     0.143 A 
ATOM     31  C   UNL     1      -0.538  -5.417   4.991  1.00  0.00     0.105 C 
ATOM     32  C   UNL     1       2.157  -7.826   4.034  1.00  0.00     0.041 A 
ATOM     33  N   UNL     1      -1.435  -4.959   5.562  1.00  0.00    -0.192 NA
ATOM     34  F   UNL     1       0.395  -7.974   5.625  1.00  0.00    -0.205 F 
ENDBRANCH  25  26
ENDBRANCH  18  21
ENDBRANCH  14  15
ENDBRANCH   1  14
TORSDOF 8
