REMARK SMILES C[C@H]1CN(C(=O)c2cc3oc(Br)cc3[nH]2)CCN(C2CCC2)C1
REMARK SMILES IDX 4 1 3 2 2 3 1 4 16 6 17 7 18 8 23 9 19 11 20 12 22 13 21 14
REMARK SMILES IDX 5 15 6 16 7 17 8 18 15 19 9 20 14 21 10 22 13 23 11 24 12 26
REMARK H PARENT 15 25
REMARK Flexibility Score:   47.900
ROOT
ATOM      1  N   UNL     1      -1.167   0.298   0.053  1.00  0.00    -0.336 N 
ENDROOT
BRANCH   1   2
ATOM      2  C   UNL     1      -2.041  -0.681   0.712  1.00  0.00     0.124 C 
BRANCH   2   3
ATOM      3  C   UNL     1      -1.254  -1.603   1.670  1.00  0.00     0.019 CG0
ATOM      4  C   UNL     1      -2.228  -2.483   2.464  1.00  0.00     0.011 C 
ATOM      5  G   UNL     1      -0.335  -0.813   2.625  1.00  0.00     0.000 G0
ENDBRANCH   2   3
ENDBRANCH   1   2
BRANCH   1   6
ATOM      6  C   UNL     1      -0.739   1.475   0.824  1.00  0.00     0.135 C 
BRANCH   6   7
ATOM      7  C   UNL     1       0.578   1.206   1.577  1.00  0.00     0.106 C 
BRANCH   7   8
ATOM      8  N   UNL     1       0.796  -0.235   1.854  1.00  0.00    -0.298 NA
BRANCH   8   9
ATOM      9  C   UNL     1      -0.335  -0.813   2.625  1.00  0.00     0.090 CG0
ATOM     10  G   UNL     1      -1.254  -1.603   1.670  1.00  0.00     0.000 G0
ENDBRANCH   8   9
BRANCH   8  11
ATOM     11  C   UNL     1       2.088  -0.435   2.548  1.00  0.00     0.056 C 
ATOM     12  C   UNL     1       2.501  -1.908   2.643  1.00  0.00     0.019 C 
ATOM     13  C   UNL     1       3.303  -0.178   1.649  1.00  0.00     0.019 C 
ATOM     14  C   UNL     1       3.725  -1.631   1.787  1.00  0.00     0.003 C 
ENDBRANCH   8  11
ENDBRANCH   7   8
ENDBRANCH   6   7
ENDBRANCH   1   6
BRANCH   1  15
ATOM     15  C   UNL     1      -0.483  -0.056  -1.163  1.00  0.00     0.270 C 
ATOM     16  O   UNL     1      -0.070  -1.235  -1.327  1.00  0.00    -0.267 OA
BRANCH  15  17
ATOM     17  C   UNL     1      -0.262   0.934  -2.232  1.00  0.00     0.108 A 
ATOM     18  C   UNL     1       0.727   0.821  -3.232  1.00  0.00     0.081 A 
ATOM     19  N   UNL     1      -1.034   2.048  -2.407  1.00  0.00    -0.348 N 
ATOM     20  C   UNL     1       0.500   1.936  -3.994  1.00  0.00     0.154 A 
ATOM     21  C   UNL     1      -0.506   2.616  -3.497  1.00  0.00     0.086 A 
ATOM     22  O   UNL     1       0.986   2.491  -5.070  1.00  0.00    -0.448 OA
ATOM     23  C   UNL     1      -0.750   3.714  -4.274  1.00  0.00     0.085 A 
ATOM     24  C   UNL     1       0.243   3.580  -5.263  1.00  0.00     0.172 A 
ATOM     25  H   UNL     1      -1.862   2.366  -1.856  1.00  0.00     0.167 HD
ATOM     26  Br  UNL     1       0.503   4.792  -6.711  1.00  0.00    -0.008 Br
ENDBRANCH  15  17
ENDBRANCH   1  15
TORSDOF 3
