REMARK SMILES COc1ccnc(N(C)C(=O)c2ccc(Oc3ccc(C(F)(F)F)cn3)cc2)n1
REMARK SMILES IDX 12 1 13 2 14 3 15 4 27 5 28 6 10 7 11 8 8 9 9 10 7 11 3 12
REMARK SMILES IDX 4 13 29 14 5 15 6 16 2 17 1 18 16 19 17 20 18 21 26 22 19 23
REMARK SMILES IDX 25 24 20 25 21 26 22 27 23 28 24 29
REMARK H PARENT
ROOT
ATOM      1  C   UNL     1      -0.533   0.133  -0.021  1.00  0.00     0.040 A 
ATOM      2  C   UNL     1       0.451   1.135  -0.072  1.00  0.00     0.018 A 
ATOM      3  C   UNL     1       1.633   0.930  -0.789  1.00  0.00     0.048 A 
ATOM      4  C   UNL     1       1.856  -0.274  -1.464  1.00  0.00     0.129 A 
ATOM      5  C   UNL     1       0.858  -1.266  -1.446  1.00  0.00     0.048 A 
ATOM      6  C   UNL     1      -0.324  -1.064  -0.728  1.00  0.00     0.018 A 
ENDROOT
BRANCH   1   7
ATOM      7  C   UNL     1      -1.792   0.347   0.733  1.00  0.00     0.260 C 
ATOM      8  O   UNL     1      -2.824  -0.307   0.416  1.00  0.00    -0.269 OA
BRANCH   7   9
ATOM      9  N   UNL     1      -1.861   1.286   1.822  1.00  0.00    -0.280 N 
ATOM     10  C   UNL     1      -0.870   1.226   2.901  1.00  0.00     0.157 C 
BRANCH   9  11
ATOM     11  C   UNL     1      -2.958   2.216   1.914  1.00  0.00     0.235 A 
ATOM     12  C   UNL     1      -4.122   3.894   3.126  1.00  0.00     0.217 A 
ATOM     13  C   UNL     1      -5.039   4.021   2.083  1.00  0.00     0.088 A 
ATOM     14  N   UNL     1      -3.103   2.998   3.020  1.00  0.00    -0.177 NA
ATOM     15  C   UNL     1      -4.877   3.221   0.954  1.00  0.00     0.121 A 
ATOM     16  N   UNL     1      -3.846   2.340   0.889  1.00  0.00    -0.221 NA
BRANCH  12  17
ATOM     17  O   UNL     1      -4.259   4.692   4.266  1.00  0.00    -0.481 OA
ATOM     18  C   UNL     1      -3.352   4.631   5.360  1.00  0.00     0.280 C 
ENDBRANCH  12  17
ENDBRANCH   9  11
ENDBRANCH   7   9
ENDBRANCH   1   7
BRANCH   4  19
ATOM     19  O   UNL     1       3.054  -0.431  -2.175  1.00  0.00    -0.439 OA
BRANCH  19  20
ATOM     20  C   UNL     1       3.719  -1.647  -2.386  1.00  0.00     0.219 A 
ATOM     21  C   UNL     1       4.717  -1.718  -3.361  1.00  0.00     0.069 A 
ATOM     22  N   UNL     1       3.442  -2.744  -1.627  1.00  0.00    -0.221 NA
ATOM     23  C   UNL     1       5.403  -2.917  -3.559  1.00  0.00     0.020 A 
ATOM     24  C   UNL     1       4.091  -3.924  -1.804  1.00  0.00     0.128 A 
ATOM     25  C   UNL     1       5.082  -4.048  -2.791  1.00  0.00     0.074 A 
BRANCH  25  26
ATOM     26  C   UNL     1       5.829  -5.348  -2.951  1.00  0.00     0.417 C 
ATOM     27  F   UNL     1       4.943  -6.410  -2.909  1.00  0.00    -0.166 F 
ATOM     28  F   UNL     1       6.740  -5.480  -1.918  1.00  0.00    -0.166 F 
ATOM     29  F   UNL     1       6.508  -5.393  -4.157  1.00  0.00    -0.166 F 
ENDBRANCH  25  26
ENDBRANCH  19  20
ENDBRANCH   4  19
TORSDOF 7
