REMARK SMILES CC(=O)Nc1ccc(CNC(=O)C2CCN(c3cnccn3)CC2)cc1
REMARK SMILES IDX 9 1 8 2 5 3 6 4 26 5 7 6 25 7 4 8 2 9 3 10 1 11 10 13 11 14
REMARK SMILES IDX 12 15 13 17 14 18 24 19 15 20 23 21 16 22 17 23 18 24 22 25
REMARK SMILES IDX 19 26 21 27 20 28
REMARK H PARENT 4 12 10 16
ROOT
ATOM      1  C   UNL     1       1.914   1.928  -1.593  1.00  0.00     0.151 C 
ENDROOT
BRANCH   1   2
ATOM      2  C   UNL     1       0.628   2.667  -1.342  1.00  0.00    -0.029 A 
ATOM      3  C   UNL     1      -1.797   4.011  -0.839  1.00  0.00     0.041 A 
ATOM      4  C   UNL     1      -1.772   2.869  -1.660  1.00  0.00     0.026 A 
ATOM      5  C   UNL     1      -0.604   4.450  -0.247  1.00  0.00     0.026 A 
ATOM      6  C   UNL     1      -0.568   2.206  -1.912  1.00  0.00     0.008 A 
ATOM      7  C   UNL     1       0.601   3.788  -0.500  1.00  0.00     0.008 A 
BRANCH   3   8
ATOM      8  N   UNL     1      -3.026   4.696  -0.542  1.00  0.00    -0.326 N 
ATOM      9  C   UNL     1      -4.118   4.827  -1.465  1.00  0.00     0.221 C 
ATOM     10  O   UNL     1      -3.963   4.561  -2.688  1.00  0.00    -0.275 OA
ATOM     11  C   UNL     1      -5.426   5.376  -0.995  1.00  0.00     0.114 C 
ATOM     12  H   UNL     1      -3.101   5.197   0.372  1.00  0.00     0.169 HD
ENDBRANCH   3   8
ENDBRANCH   1   2
BRANCH   1  13
ATOM     13  N   UNL     1       1.901   0.646  -0.892  1.00  0.00    -0.352 N 
ATOM     14  C   UNL     1       2.034   0.551   0.535  1.00  0.00     0.223 C 
ATOM     15  O   UNL     1       2.309   1.580   1.212  1.00  0.00    -0.275 OA
ATOM     16  H   UNL     1       1.755  -0.220  -1.456  1.00  0.00     0.163 HD
BRANCH  14  17
ATOM     17  C   UNL     1       1.843  -0.764   1.246  1.00  0.00     0.082 C 
ATOM     18  C   UNL     1       2.898  -1.793   0.802  1.00  0.00     0.035 C 
ATOM     19  C   UNL     1       0.423  -1.311   1.016  1.00  0.00     0.035 C 
ATOM     20  C   UNL     1       2.694  -3.121   1.537  1.00  0.00     0.119 C 
ATOM     21  C   UNL     1       0.230  -2.648   1.739  1.00  0.00     0.119 C 
ATOM     22  N   UNL     1       1.306  -3.582   1.379  1.00  0.00    -0.355 N 
BRANCH  22  23
ATOM     23  C   UNL     1       1.016  -4.988   1.271  1.00  0.00     0.147 A 
ATOM     24  C   UNL     1       1.707  -5.805   0.362  1.00  0.00     0.157 A 
ATOM     25  N   UNL     1       0.036  -5.544   2.037  1.00  0.00    -0.236 NA
ATOM     26  N   UNL     1       1.398  -7.126   0.279  1.00  0.00    -0.259 NA
ATOM     27  C   UNL     1      -0.271  -6.865   1.952  1.00  0.00     0.133 A 
ATOM     28  C   UNL     1       0.429  -7.675   1.057  1.00  0.00     0.131 A 
ENDBRANCH  22  23
ENDBRANCH  14  17
ENDBRANCH   1  13
TORSDOF 5
