REMARK SMILES c1ccc(Oc2ccnc(N[C@@H]3CC[C@H]4OCC[C@H]4C3)n2)cc1
REMARK SMILES IDX 6 1 7 2 8 3 9 4 10 5 21 6 5 7 4 8 1 9 2 10 23 11 3 12 22 13
REMARK SMILES IDX 11 14 12 16 13 17 20 18 14 19 19 20 15 21 18 22 16 23 17 24
REMARK H PARENT 11 15
ROOT
ATOM      1  C   UNL     1       2.451  -0.941  -2.189  1.00  0.00     0.224 A 
ATOM      2  C   UNL     1       3.767  -0.586  -2.489  1.00  0.00     0.089 A 
ATOM      3  C   UNL     1       4.144   0.750  -2.355  1.00  0.00     0.121 A 
ATOM      4  N   UNL     1       3.237   1.675  -1.947  1.00  0.00    -0.221 NA
ATOM      5  C   UNL     1       1.954   1.320  -1.667  1.00  0.00     0.226 A 
ATOM      6  N   UNL     1       1.573   0.021  -1.796  1.00  0.00    -0.177 NA
ENDROOT
BRANCH   1   7
ATOM      7  O   UNL     1       2.045  -2.274  -2.332  1.00  0.00    -0.439 OA
BRANCH   7   8
ATOM      8  C   UNL     1       0.875  -2.816  -1.781  1.00  0.00     0.129 A 
ATOM      9  C   UNL     1      -1.471  -3.953  -0.738  1.00  0.00     0.000 A 
ATOM     10  C   UNL     1      -0.805  -2.953  -0.025  1.00  0.00     0.004 A 
ATOM     11  C   UNL     1      -0.959  -4.399  -1.960  1.00  0.00     0.004 A 
ATOM     12  C   UNL     1       0.369  -2.391  -0.537  1.00  0.00     0.047 A 
ATOM     13  C   UNL     1       0.213  -3.837  -2.476  1.00  0.00     0.047 A 
ENDBRANCH   7   8
ENDBRANCH   1   7
BRANCH   5  14
ATOM     14  N   UNL     1       1.015   2.316  -1.240  1.00  0.00    -0.351 N 
ATOM     15  H   UNL     1       1.347   3.305  -1.182  1.00  0.00     0.163 HD
BRANCH  14  16
ATOM     16  C   UNL     1      -0.385   1.990  -0.932  1.00  0.00     0.082 C 
ATOM     17  C   UNL     1      -1.268   3.262  -0.989  1.00  0.00     0.027 C 
ATOM     18  C   UNL     1      -0.485   1.248   0.426  1.00  0.00     0.031 C 
ATOM     19  C   UNL     1      -2.503   3.119  -0.095  1.00  0.00     0.034 C 
ATOM     20  C   UNL     1      -0.792   2.205   1.598  1.00  0.00     0.022 C 
ATOM     21  C   UNL     1      -2.088   3.003   1.385  1.00  0.00     0.121 C 
ATOM     22  C   UNL     1      -1.075   1.457   2.872  1.00  0.00     0.035 C 
ATOM     23  O   UNL     1      -3.133   2.416   2.131  1.00  0.00    -0.378 OA
ATOM     24  C   UNL     1      -2.586   1.359   2.887  1.00  0.00     0.161 C 
ENDBRANCH  14  16
ENDBRANCH   5  14
TORSDOF 4
