REMARK SMILES Nc1ccc(C(=O)Nc2ccc(Cl)cc2OCC(F)(F)F)cn1
REMARK SMILES IDX 9 1 10 2 11 3 12 4 13 5 14 6 15 7 8 8 6 9 7 10 5 12 2 13
REMARK SMILES IDX 3 14 23 15 4 16 22 17 1 18 16 21 17 22 18 23 19 24 20 25
REMARK SMILES IDX 21 26
REMARK H PARENT 8 11 1 19 1 20
ROOT
ATOM      1  C   UNL     1       1.132  -0.144   0.298  1.00  0.00     0.084 A 
ATOM      2  C   UNL     1       2.148  -0.647   1.130  1.00  0.00     0.031 A 
ATOM      3  C   UNL     1       2.903   0.216   1.926  1.00  0.00     0.023 A 
ATOM      4  C   UNL     1       2.644   1.588   1.911  1.00  0.00     0.044 A 
ATOM      5  Cl  UNL     1       3.593   2.669   2.915  1.00  0.00    -0.084 Cl
ATOM      6  C   UNL     1       1.623   2.099   1.104  1.00  0.00     0.069 A 
ATOM      7  C   UNL     1       0.856   1.237   0.295  1.00  0.00     0.144 A 
ENDROOT
BRANCH   1   8
ATOM      8  N   UNL     1       0.331  -1.030  -0.503  1.00  0.00    -0.319 N 
ATOM      9  C   UNL     1       0.874  -2.128  -1.260  1.00  0.00     0.257 C 
ATOM     10  O   UNL     1       2.118  -2.334  -1.266  1.00  0.00    -0.269 OA
ATOM     11  H   UNL     1      -0.691  -0.825  -0.562  1.00  0.00     0.170 HD
BRANCH   9  12
ATOM     12  C   UNL     1      -0.005  -3.026  -2.048  1.00  0.00     0.058 A 
ATOM     13  C   UNL     1      -1.643  -4.718  -3.546  1.00  0.00     0.123 A 
ATOM     14  C   UNL     1      -0.436  -5.204  -3.034  1.00  0.00     0.047 A 
ATOM     15  N   UNL     1      -2.000  -3.426  -3.319  1.00  0.00    -0.239 NA
ATOM     16  C   UNL     1       0.384  -4.354  -2.290  1.00  0.00     0.019 A 
ATOM     17  C   UNL     1      -1.221  -2.579  -2.594  1.00  0.00     0.127 A 
BRANCH  13  18
ATOM     18  N   UNL     1      -2.500  -5.566  -4.311  1.00  0.00    -0.384 N 
ATOM     19  H   UNL     1      -2.243  -6.561  -4.498  1.00  0.00     0.158 HD
ATOM     20  H   UNL     1      -3.399  -5.199  -4.694  1.00  0.00     0.158 HD
ENDBRANCH  13  18
ENDBRANCH   9  12
ENDBRANCH   1   8
BRANCH   7  21
ATOM     21  O   UNL     1      -0.177   1.715  -0.528  1.00  0.00    -0.482 OA
BRANCH  21  22
ATOM     22  C   UNL     1      -0.563   3.083  -0.633  1.00  0.00     0.344 C 
BRANCH  22  23
ATOM     23  C   UNL     1      -1.717   3.214  -1.617  1.00  0.00     0.422 C 
ATOM     24  F   UNL     1      -2.798   2.471  -1.176  1.00  0.00    -0.167 F 
ATOM     25  F   UNL     1      -2.092   4.541  -1.720  1.00  0.00    -0.167 F 
ATOM     26  F   UNL     1      -1.327   2.756  -2.863  1.00  0.00    -0.167 F 
ENDBRANCH  22  23
ENDBRANCH  21  22
ENDBRANCH   7  21
TORSDOF 6
