REMARK SMILES O=C(c1ccc2cc(-c3ccccc3)[nH]c2c1)N1CC(NC2CCOCC2)C1
REMARK SMILES IDX 1 1 2 2 18 3 19 4 20 5 28 6 3 7 4 8 17 9 5 10 16 11 6 12
REMARK SMILES IDX 15 13 7 14 8 15 9 17 10 18 14 19 11 20 13 21 12 22 21 23
REMARK SMILES IDX 22 25 23 26 27 27 24 28 26 29 25 30
REMARK H PARENT 15 16 21 24
ROOT
ATOM      1  O   UNL     1      -1.608  -1.331   4.448  1.00  0.00    -0.269 OA
ATOM      2  C   UNL     1      -1.019  -1.112   3.356  1.00  0.00     0.254 C 
ATOM      3  N   UNL     1      -0.284  -2.173   2.740  1.00  0.00    -0.335 N 
ATOM      4  C   UNL     1       0.701  -2.363   1.658  1.00  0.00     0.140 C 
ATOM      5  C   UNL     1       1.001  -3.802   1.967  1.00  0.00     0.093 C 
ATOM      6  C   UNL     1      -0.006  -3.587   3.054  1.00  0.00     0.140 C 
ENDROOT
BRANCH   2   7
ATOM      7  C   UNL     1      -1.061   0.242   2.766  1.00  0.00     0.042 A 
ATOM      8  C   UNL     1      -1.087   1.379   3.616  1.00  0.00     0.014 A 
ATOM      9  C   UNL     1      -1.105   0.421   1.365  1.00  0.00     0.040 A 
ATOM     10  C   UNL     1      -1.128   2.679   3.080  1.00  0.00     0.011 A 
ATOM     11  C   UNL     1      -1.147   1.722   0.867  1.00  0.00     0.047 A 
ATOM     12  C   UNL     1      -1.153   2.810   1.695  1.00  0.00     0.000 A 
ATOM     13  N   UNL     1      -1.193   2.099  -0.421  1.00  0.00    -0.355 N 
ATOM     14  C   UNL     1      -1.200   3.935   0.903  1.00  0.00     0.037 A 
ATOM     15  C   UNL     1      -1.224   3.456  -0.410  1.00  0.00     0.046 A 
ATOM     16  H   UNL     1      -1.182   1.465  -1.250  1.00  0.00     0.167 HD
BRANCH  15  17
ATOM     17  C   UNL     1      -1.278   4.297  -1.633  1.00  0.00    -0.002 A 
ATOM     18  C   UNL     1      -1.742   3.763  -2.850  1.00  0.00     0.010 A 
ATOM     19  C   UNL     1      -0.867   5.644  -1.596  1.00  0.00     0.010 A 
ATOM     20  C   UNL     1      -1.792   4.557  -4.000  1.00  0.00     0.001 A 
ATOM     21  C   UNL     1      -0.918   6.433  -2.750  1.00  0.00     0.001 A 
ATOM     22  C   UNL     1      -1.380   5.890  -3.950  1.00  0.00     0.000 A 
ENDBRANCH  15  17
ENDBRANCH   2   7
BRANCH   5  23
ATOM     23  N   UNL     1       0.525  -4.765   0.957  1.00  0.00    -0.308 NA
ATOM     24  H   UNL     1      -0.312  -4.403   0.440  1.00  0.00     0.123 HD
BRANCH  23  25
ATOM     25  C   UNL     1       1.584  -5.154   0.009  1.00  0.00     0.058 C 
ATOM     26  C   UNL     1       1.155  -6.427  -0.744  1.00  0.00     0.047 C 
ATOM     27  C   UNL     1       1.908  -4.031  -0.997  1.00  0.00     0.047 C 
ATOM     28  C   UNL     1       1.980  -6.639  -2.028  1.00  0.00     0.161 C 
ATOM     29  C   UNL     1       2.902  -4.514  -2.078  1.00  0.00     0.161 C 
ATOM     30  O   UNL     1       3.185  -5.901  -1.990  1.00  0.00    -0.381 OA
ENDBRANCH  23  25
ENDBRANCH   5  23
TORSDOF 4
