REMARK SMILES C[C@@H](NCc1nc2sc3c(c2c(=O)[nH]1)CCC3)c1cc(Br)cs1
REMARK SMILES IDX 3 1 2 3 1 4 18 5 19 6 23 7 20 8 22 9 21 10 4 11 5 12 6 13
REMARK SMILES IDX 14 14 7 15 12 16 8 17 11 18 13 19 9 20 10 21 17 22 15 23
REMARK SMILES IDX 16 24
REMARK H PARENT 3 2 14 25
ROOT
ATOM      1  N   UNL     1       0.576  -2.145   0.842  1.00  0.00    -0.302 NA
ATOM      2  H   UNL     1       1.125  -2.955   1.214  1.00  0.00     0.123 HD
ENDROOT
BRANCH   1   3
ATOM      3  C   UNL     1      -0.241  -2.589  -0.304  1.00  0.00     0.091 C 
ATOM      4  C   UNL     1      -1.383  -3.475   0.194  1.00  0.00     0.030 C 
BRANCH   3   5
ATOM      5  C   UNL     1       0.583  -3.325  -1.334  1.00  0.00     0.022 A 
ATOM      6  C   UNL     1       1.310  -4.494  -1.135  1.00  0.00     0.032 A 
ATOM      7  S   UNL     1       0.781  -2.839  -2.932  1.00  0.00    -0.146 S 
ATOM      8  C   UNL     1       1.980  -4.924  -2.286  1.00  0.00     0.029 A 
ATOM      9  C   UNL     1       1.789  -4.104  -3.390  1.00  0.00     0.080 A 
ATOM     10  Br  UNL     1       3.061  -6.495  -2.333  1.00  0.00    -0.050 Br
ENDBRANCH   3   5
ENDBRANCH   1   3
BRANCH   1  11
ATOM     11  C   UNL     1       1.516  -1.070   0.492  1.00  0.00     0.157 C 
BRANCH  11  12
ATOM     12  C   UNL     1       0.792   0.234   0.327  1.00  0.00     0.124 A 
ATOM     13  N   UNL     1       0.288   0.861   1.430  1.00  0.00    -0.222 NA
ATOM     14  N   UNL     1       0.600   0.771  -0.923  1.00  0.00    -0.309 N 
ATOM     15  C   UNL     1      -0.390   2.022   1.276  1.00  0.00     0.131 A 
ATOM     16  C   UNL     1      -0.083   1.941  -1.095  1.00  0.00     0.259 A 
ATOM     17  S   UNL     1      -1.095   2.959   2.502  1.00  0.00    -0.120 S 
ATOM     18  C   UNL     1      -0.592   2.588   0.029  1.00  0.00     0.080 A 
ATOM     19  O   UNL     1      -0.248   2.419  -2.249  1.00  0.00    -0.269 OA
ATOM     20  C   UNL     1      -1.656   4.098   1.387  1.00  0.00     0.011 A 
ATOM     21  C   UNL     1      -1.318   3.773   0.121  1.00  0.00    -0.019 A 
ATOM     22  C   UNL     1      -2.431   5.345   1.495  1.00  0.00     0.047 C 
ATOM     23  C   UNL     1      -1.809   4.754  -0.867  1.00  0.00     0.038 C 
ATOM     24  C   UNL     1      -2.541   5.799   0.016  1.00  0.00     0.010 C 
ATOM     25  H   UNL     1       0.978   0.277  -1.763  1.00  0.00     0.171 HD
ENDBRANCH  11  12
ENDBRANCH   1  11
TORSDOF 4
