REMARK SMILES O=C(N[C@H]1CC[C@@H]2CC[C@@H]21)c1c[nH]nc1-c1cccc(F)c1
REMARK SMILES IDX 11 1 12 2 13 3 14 4 15 5 2 7 1 8 3 9 4 11 5 12 10 13 6 14
REMARK SMILES IDX 9 15 7 16 8 17 16 18 17 19 22 20 18 21 20 22 19 23 21 24
REMARK H PARENT 13 6 3 10
ROOT
ATOM      1  C   UNL     1       0.075   3.015   0.308  1.00  0.00     0.085 A 
ATOM      2  C   UNL     1      -0.094   4.376   0.161  1.00  0.00     0.119 A 
ATOM      3  N   UNL     1       1.091   4.977   0.364  1.00  0.00    -0.284 N 
ATOM      4  N   UNL     1       2.013   4.070   0.647  1.00  0.00    -0.175 NA
ATOM      5  C   UNL     1       1.420   2.858   0.629  1.00  0.00     0.105 A 
ATOM      6  H   UNL     1       1.277   6.003   0.307  1.00  0.00     0.189 HD
ENDROOT
BRANCH   1   7
ATOM      7  C   UNL     1      -0.955   1.988   0.072  1.00  0.00     0.255 C 
ATOM      8  O   UNL     1      -2.168   2.277   0.254  1.00  0.00    -0.269 OA
ATOM      9  N   UNL     1      -0.589   0.686  -0.406  1.00  0.00    -0.349 N 
ATOM     10  H   UNL     1       0.336   0.571  -0.879  1.00  0.00     0.164 HD
BRANCH   9  11
ATOM     11  C   UNL     1      -1.524  -0.441  -0.411  1.00  0.00     0.085 C 
ATOM     12  C   UNL     1      -2.132  -0.633  -1.796  1.00  0.00     0.025 C 
ATOM     13  C   UNL     1      -0.793  -1.758  -0.098  1.00  0.00     0.015 C 
ATOM     14  C   UNL     1      -2.399  -2.124  -1.925  1.00  0.00     0.006 C 
ATOM     15  C   UNL     1      -1.327  -2.547   1.101  1.00  0.00     0.006 C 
ATOM     16  C   UNL     1      -1.353  -2.811  -1.041  1.00  0.00    -0.006 C 
ATOM     17  C   UNL     1      -1.897  -3.596   0.155  1.00  0.00     0.004 C 
ENDBRANCH   9  11
ENDBRANCH   1   7
BRANCH   5  18
ATOM     18  C   UNL     1       2.132   1.612   0.980  1.00  0.00     0.006 A 
ATOM     19  C   UNL     1       3.453   1.417   0.544  1.00  0.00     0.010 A 
ATOM     20  C   UNL     1       1.524   0.633   1.786  1.00  0.00     0.049 A 
ATOM     21  C   UNL     1       4.140   0.245   0.877  1.00  0.00     0.004 A 
ATOM     22  C   UNL     1       2.213  -0.537   2.116  1.00  0.00     0.123 A 
ATOM     23  C   UNL     1       3.519  -0.734   1.658  1.00  0.00     0.039 A 
ATOM     24  F   UNL     1       1.618  -1.480   2.888  1.00  0.00    -0.207 F 
ENDBRANCH   5  18
TORSDOF 3
