REMARK SMILES CN1CCC[C@H](N2CCN(C(=O)Cc3csc(-c4cccs4)n3)CC2)C1
REMARK SMILES IDX 7 1 8 2 9 3 10 4 24 5 25 6 11 7 12 8 6 9 2 10 3 11 26 12
REMARK SMILES IDX 4 13 5 14 1 15 13 16 14 17 15 18 23 19 16 20 17 21 18 22
REMARK SMILES IDX 19 23 22 24 20 25 21 26
REMARK H PARENT
ROOT
ATOM      1  N   UNL     1       2.526   0.661   0.658  1.00  0.00    -0.296 NA
ATOM      2  C   UNL     1       3.041   0.387  -0.702  1.00  0.00     0.106 C 
ATOM      3  C   UNL     1       2.421  -0.872  -1.323  1.00  0.00     0.135 C 
ATOM      4  N   UNL     1       2.206  -1.965  -0.355  1.00  0.00    -0.340 N 
ATOM      5  C   UNL     1       2.314  -1.794   1.105  1.00  0.00     0.135 C 
ATOM      6  C   UNL     1       2.953  -0.462   1.517  1.00  0.00     0.106 C 
ATOM      7  C   UNL     1       1.704  -3.228  -0.834  1.00  0.00     0.228 C 
ATOM      8  O   UNL     1       2.001  -4.291  -0.222  1.00  0.00    -0.274 OA
ENDROOT
BRANCH   1   9
ATOM      9  C   UNL     1       1.056   0.957   0.692  1.00  0.00     0.071 C 
ATOM     10  N   UNL     1      -0.422   2.993   0.270  1.00  0.00    -0.305 NA
ATOM     11  C   UNL     1      -1.474   2.143   0.846  1.00  0.00     0.084 C 
ATOM     12  C   UNL     1       0.720   2.183  -0.216  1.00  0.00     0.103 C 
ATOM     13  C   UNL     1      -0.970   1.516   2.150  1.00  0.00     0.017 C 
ATOM     14  C   UNL     1       0.544   1.232   2.126  1.00  0.00     0.022 C 
ATOM     15  C   UNL     1      -0.967   3.817  -0.820  1.00  0.00     0.105 C 
ENDBRANCH   1   9
BRANCH   7  16
ATOM     16  C   UNL     1       0.767  -3.309  -2.010  1.00  0.00     0.157 C 
BRANCH  16  17
ATOM     17  C   UNL     1      -0.469  -2.496  -1.754  1.00  0.00     0.061 A 
ATOM     18  C   UNL     1      -1.033  -1.650  -2.708  1.00  0.00     0.091 A 
ATOM     19  N   UNL     1      -1.104  -2.512  -0.550  1.00  0.00    -0.240 NA
ATOM     20  S   UNL     1      -2.353  -0.887  -2.001  1.00  0.00    -0.121 S 
ATOM     21  C   UNL     1      -2.163  -1.673  -0.526  1.00  0.00     0.133 A 
BRANCH  21  22
ATOM     22  C   UNL     1      -2.983  -1.450   0.668  1.00  0.00     0.063 A 
ATOM     23  C   UNL     1      -4.066  -0.585   0.773  1.00  0.00     0.023 A 
ATOM     24  S   UNL     1      -2.726  -2.168   2.167  1.00  0.00    -0.141 S 
ATOM     25  C   UNL     1      -4.626  -0.556   2.055  1.00  0.00     0.012 A 
ATOM     26  C   UNL     1      -3.990  -1.393   2.962  1.00  0.00     0.065 A 
ENDBRANCH  21  22
ENDBRANCH  16  17
ENDBRANCH   7  16
TORSDOF 4
