REMARK SMILES c1ccc(Nc2nc(OCC3CCCCC3)c3[nH]cnc3n2)cc1
REMARK SMILES IDX 6 1 7 2 8 3 17 4 18 5 19 6 20 7 21 8 22 9 5 11 4 13 1 14
REMARK SMILES IDX 2 15 24 16 3 17 23 18 9 19 10 20 11 21 12 22 16 23 13 24
REMARK SMILES IDX 15 25 14 26
REMARK H PARENT 18 10 5 12
ROOT
ATOM      1  C   UNL     1       0.460  -1.389   1.058  1.00  0.00     0.232 A 
ATOM      2  N   UNL     1       0.867  -0.079   1.113  1.00  0.00    -0.175 NA
ATOM      3  C   UNL     1       1.676   0.463   0.152  1.00  0.00     0.245 A 
ATOM      4  C   UNL     1       2.074  -0.366  -0.885  1.00  0.00     0.148 A 
ATOM      5  N   UNL     1       2.838  -0.104  -1.951  1.00  0.00    -0.339 N 
ATOM      6  C   UNL     1       2.857  -1.281  -2.626  1.00  0.00     0.199 A 
ATOM      7  N   UNL     1       2.134  -2.268  -2.028  1.00  0.00    -0.217 NA
ATOM      8  C   UNL     1       1.658  -1.649  -0.935  1.00  0.00     0.186 A 
ATOM      9  N   UNL     1       0.851  -2.184   0.012  1.00  0.00    -0.191 NA
ATOM     10  H   UNL     1       3.303   0.794  -2.209  1.00  0.00     0.168 HD
ENDROOT
BRANCH   1  11
ATOM     11  N   UNL     1      -0.419  -1.895   2.072  1.00  0.00    -0.324 N 
ATOM     12  H   UNL     1      -0.924  -1.196   2.664  1.00  0.00     0.170 HD
BRANCH  11  13
ATOM     13  C   UNL     1      -0.733  -3.286   2.251  1.00  0.00     0.041 A 
ATOM     14  C   UNL     1      -1.375  -5.988   2.673  1.00  0.00     0.000 A 
ATOM     15  C   UNL     1      -0.087  -5.632   2.264  1.00  0.00     0.002 A 
ATOM     16  C   UNL     1      -2.338  -4.998   2.888  1.00  0.00     0.002 A 
ATOM     17  C   UNL     1       0.238  -4.287   2.060  1.00  0.00     0.026 A 
ATOM     18  C   UNL     1      -2.016  -3.652   2.685  1.00  0.00     0.026 A 
ENDBRANCH  11  13
ENDBRANCH   1  11
BRANCH   3  19
ATOM     19  O   UNL     1       2.091   1.798   0.198  1.00  0.00    -0.476 OA
BRANCH  19  20
ATOM     20  C   UNL     1       1.599   2.760   1.132  1.00  0.00     0.235 C 
BRANCH  20  21
ATOM     21  C   UNL     1       0.491   3.635   0.511  1.00  0.00     0.027 C 
ATOM     22  C   UNL     1      -0.797   2.830   0.183  1.00  0.00     0.007 C 
ATOM     23  C   UNL     1       1.029   4.433  -0.705  1.00  0.00     0.007 C 
ATOM     24  C   UNL     1      -0.907   2.490  -1.309  1.00  0.00     0.000 C 
ATOM     25  C   UNL     1      -0.117   4.930  -1.591  1.00  0.00     0.000 C 
ATOM     26  C   UNL     1      -0.931   3.761  -2.182  1.00  0.00     0.000 C 
ENDBRANCH  20  21
ENDBRANCH  19  20
ENDBRANCH   3  19
TORSDOF 5
