REMARK SMILES O=C(Nc1nnc2ccccn12)c1cccc(Nc2ccccc2)c1
REMARK SMILES IDX 13 1 14 2 15 3 16 4 17 5 25 6 2 7 1 8 3 9 4 11 5 12 12 13
REMARK SMILES IDX 6 14 11 15 7 16 10 17 8 18 9 19 18 20 19 22 20 23 24 24
REMARK SMILES IDX 21 25 23 26 22 27
REMARK H PARENT 3 10 18 21
ROOT
ATOM      1  C   UNL     1      -0.561  -0.295  -0.045  1.00  0.00     0.042 A 
ATOM      2  C   UNL     1      -0.196  -0.447   1.305  1.00  0.00     0.014 A 
ATOM      3  C   UNL     1      -1.143  -0.838   2.254  1.00  0.00     0.003 A 
ATOM      4  C   UNL     1      -2.462  -1.086   1.869  1.00  0.00     0.026 A 
ATOM      5  C   UNL     1      -2.846  -0.954   0.529  1.00  0.00     0.039 A 
ATOM      6  C   UNL     1      -1.896  -0.534  -0.420  1.00  0.00     0.039 A 
ENDROOT
BRANCH   1   7
ATOM      7  C   UNL     1       0.429   0.142  -1.059  1.00  0.00     0.258 C 
ATOM      8  O   UNL     1       0.023   0.697  -2.117  1.00  0.00    -0.269 OA
ATOM      9  N   UNL     1       1.836  -0.087  -0.866  1.00  0.00    -0.290 N 
ATOM     10  H   UNL     1       2.135  -0.768  -0.136  1.00  0.00     0.173 HD
BRANCH   9  11
ATOM     11  C   UNL     1       2.852   0.540  -1.664  1.00  0.00     0.235 A 
ATOM     12  N   UNL     1       2.616   1.490  -2.598  1.00  0.00    -0.111 NA
ATOM     13  N   UNL     1       4.167   0.282  -1.565  1.00  0.00    -0.269 N 
ATOM     14  N   UNL     1       3.792   1.843  -3.110  1.00  0.00    -0.128 NA
ATOM     15  C   UNL     1       4.885  -0.568  -0.786  1.00  0.00     0.096 A 
ATOM     16  C   UNL     1       4.717   1.101  -2.472  1.00  0.00     0.162 A 
ATOM     17  C   UNL     1       6.280  -0.585  -0.945  1.00  0.00     0.019 A 
ATOM     18  C   UNL     1       6.095   1.131  -2.675  1.00  0.00     0.050 A 
ATOM     19  C   UNL     1       6.882   0.268  -1.893  1.00  0.00     0.005 A 
ENDBRANCH   9  11
ENDBRANCH   1   7
BRANCH   5  20
ATOM     20  N   UNL     1      -4.216  -1.187   0.161  1.00  0.00    -0.356 N 
ATOM     21  H   UNL     1      -4.954  -0.976   0.871  1.00  0.00     0.167 HD
BRANCH  20  22
ATOM     22  C   UNL     1      -4.640  -1.693  -1.117  1.00  0.00     0.038 A 
ATOM     23  C   UNL     1      -5.900  -1.332  -1.619  1.00  0.00     0.026 A 
ATOM     24  C   UNL     1      -3.845  -2.597  -1.846  1.00  0.00     0.026 A 
ATOM     25  C   UNL     1      -6.343  -1.833  -2.847  1.00  0.00     0.002 A 
ATOM     26  C   UNL     1      -4.291  -3.096  -3.074  1.00  0.00     0.002 A 
ATOM     27  C   UNL     1      -5.537  -2.712  -3.575  1.00  0.00     0.000 A 
ENDBRANCH  20  22
ENDBRANCH   5  20
TORSDOF 4
