REMARK SMILES CCCNC(=O)C1CCN(C(=O)c2cccc(Cl)c2)CC1
REMARK SMILES IDX 4 1 5 2 6 3 3 5 2 6 1 7 7 8 8 9 21 10 9 11 20 12 10 13 11 14
REMARK SMILES IDX 12 15 13 16 14 17 19 18 15 19 17 20 16 21 18 22
REMARK H PARENT 4 4
ROOT
ATOM      1  N   UNL     1       0.454  -2.038  -2.703  1.00  0.00    -0.356 N 
ATOM      2  C   UNL     1       0.901  -1.069  -1.745  1.00  0.00     0.223 C 
ATOM      3  O   UNL     1       0.281   0.023  -1.617  1.00  0.00    -0.275 OA
ATOM      4  H   UNL     1       1.016  -2.907  -2.849  1.00  0.00     0.163 HD
ENDROOT
BRANCH   1   5
ATOM      5  C   UNL     1      -0.753  -1.850  -3.506  1.00  0.00     0.115 C 
BRANCH   5   6
ATOM      6  C   UNL     1      -2.003  -2.057  -2.645  1.00  0.00     0.018 C 
ATOM      7  C   UNL     1      -3.275  -1.897  -3.473  1.00  0.00     0.006 C 
ENDBRANCH   5   6
ENDBRANCH   1   5
BRANCH   2   8
ATOM      8  C   UNL     1       2.069  -1.391  -0.838  1.00  0.00     0.082 C 
ATOM      9  C   UNL     1       2.901  -0.130  -0.470  1.00  0.00     0.035 C 
ATOM     10  C   UNL     1       1.575  -2.139   0.416  1.00  0.00     0.035 C 
ATOM     11  C   UNL     1       2.648   0.374   0.962  1.00  0.00     0.120 C 
ATOM     12  C   UNL     1       0.719  -1.229   1.313  1.00  0.00     0.120 C 
ATOM     13  N   UNL     1       1.252   0.144   1.353  1.00  0.00    -0.339 N 
ATOM     14  C   UNL     1       0.360   1.260   1.547  1.00  0.00     0.253 C 
ATOM     15  O   UNL     1       0.552   2.329   0.905  1.00  0.00    -0.269 OA
BRANCH  14  16
ATOM     16  C   UNL     1      -0.798   1.174   2.464  1.00  0.00     0.041 A 
ATOM     17  C   UNL     1      -2.000   1.828   2.145  1.00  0.00     0.014 A 
ATOM     18  C   UNL     1      -0.701   0.471   3.677  1.00  0.00     0.034 A 
ATOM     19  C   UNL     1      -3.095   1.754   3.011  1.00  0.00     0.002 A 
ATOM     20  C   UNL     1      -1.799   0.399   4.542  1.00  0.00     0.041 A 
ATOM     21  C   UNL     1      -2.997   1.038   4.206  1.00  0.00     0.020 A 
ATOM     22  Cl  UNL     1      -1.670  -0.484   6.052  1.00  0.00    -0.084 Cl
ENDBRANCH  14  16
ENDBRANCH   2   8
TORSDOF 4
