REMARK SMILES O=C1C[C@@](O)(C(=O)N2CC(CF)C2)c2cc(Br)ccc2N1
REMARK SMILES IDX 4 1 3 2 2 3 1 4 21 5 20 6 19 7 18 8 16 9 17 10 15 11 14 12
REMARK SMILES IDX 6 14 7 15 8 16 9 17 13 18 10 19 11 20 12 21 5 22
REMARK H PARENT 21 13 5 23
ROOT
ATOM      1  C   UNL     1      -0.087   2.143   1.329  1.00  0.00     0.179 C 
ATOM      2  C   UNL     1      -1.565   2.591   1.194  1.00  0.00     0.151 C 
ATOM      3  C   UNL     1      -2.295   1.832   0.136  1.00  0.00     0.228 C 
ATOM      4  O   UNL     1      -3.506   1.522   0.292  1.00  0.00    -0.275 OA
ATOM      5  N   UNL     1      -1.635   1.544  -1.093  1.00  0.00    -0.326 N 
ATOM      6  C   UNL     1      -0.212   1.680  -1.197  1.00  0.00     0.047 A 
ATOM      7  C   UNL     1       0.410   1.472  -2.436  1.00  0.00     0.028 A 
ATOM      8  C   UNL     1       1.800   1.516  -2.545  1.00  0.00     0.018 A 
ATOM      9  C   UNL     1       2.582   1.752  -1.414  1.00  0.00     0.018 A 
ATOM     10  Br  UNL     1       4.486   1.773  -1.562  1.00  0.00    -0.051 Br
ATOM     11  C   UNL     1       1.975   1.959  -0.172  1.00  0.00     0.025 A 
ATOM     12  C   UNL     1       0.570   1.951  -0.045  1.00  0.00     0.018 A 
ATOM     13  H   UNL     1      -2.191   1.185  -1.902  1.00  0.00     0.169 HD
ENDROOT
BRANCH   1  14
ATOM     14  C   UNL     1      -0.036   0.869   2.172  1.00  0.00     0.259 C 
ATOM     15  O   UNL     1      -0.096   0.975   3.426  1.00  0.00    -0.271 OA
ATOM     16  N   UNL     1       0.017  -0.447   1.606  1.00  0.00    -0.339 N 
ATOM     17  C   UNL     1       0.042  -1.132   0.297  1.00  0.00     0.127 C 
ATOM     18  C   UNL     1       0.075  -1.812   2.162  1.00  0.00     0.127 C 
ATOM     19  C   UNL     1       0.105  -2.524   0.845  1.00  0.00     0.059 C 
BRANCH  19  20
ATOM     20  C   UNL     1      -1.139  -3.370   0.554  1.00  0.00     0.221 C 
ATOM     21  F   UNL     1      -1.100  -4.526   1.312  1.00  0.00    -0.251 F 
ENDBRANCH  19  20
ENDBRANCH   1  14
BRANCH   1  22
ATOM     22  O   UNL     1       0.572   3.193   2.008  1.00  0.00    -0.375 OA
ATOM     23  H   UNL     1       1.409   2.848   2.416  1.00  0.00     0.212 HD
ENDBRANCH   1  22
TORSDOF 3
