REMARK SMILES CC[C@H]1Cc2ccccc2CN1C(=O)[C@H]1CCc2nncn2CC1
REMARK SMILES IDX 15 1 13 2 14 3 12 4 3 5 4 6 5 7 11 8 6 9 10 10 7 11 9 12
REMARK SMILES IDX 8 13 2 14 1 15 16 16 24 18 23 19 22 20 21 21 18 22 20 23
REMARK SMILES IDX 19 24 17 25
REMARK H PARENT
REMARK Flexibility Score:   51.900
ROOT
ATOM      1  C   UNL     1      -1.293  -1.807  -1.113  1.00  0.00     0.081 C 
ENDROOT
BRANCH   1   2
ATOM      2  C   UNL     1      -0.233  -0.812  -1.539  1.00  0.00     0.226 C 
ATOM      3  O   UNL     1       0.019  -0.677  -2.768  1.00  0.00    -0.275 OA
BRANCH   2   4
ATOM      4  N   UNL     1       0.517  -0.045  -0.573  1.00  0.00    -0.335 N 
ATOM      5  C   UNL     1       0.943   1.325  -0.902  1.00  0.00     0.089 C 
ATOM      6  C   UNL     1       2.437   1.477  -0.590  1.00  0.00     0.061 C 
ATOM      7  C   UNL     1       2.772   0.993   0.796  1.00  0.00    -0.041 A 
ATOM      8  C   UNL     1       0.753  -0.576   0.780  1.00  0.00     0.155 C 
ATOM      9  C   UNL     1       3.917   1.488   1.440  1.00  0.00     0.004 A 
ATOM     10  C   UNL     1       1.996  -0.007   1.425  1.00  0.00    -0.025 A 
ATOM     11  C   UNL     1       4.273   1.021   2.707  1.00  0.00     0.000 A 
ATOM     12  C   UNL     1       2.364  -0.465   2.700  1.00  0.00     0.006 A 
ATOM     13  C   UNL     1       3.497   0.048   3.337  1.00  0.00     0.000 A 
BRANCH   5  14
ATOM     14  C   UNL     1       0.093   2.369  -0.144  1.00  0.00     0.022 C 
ATOM     15  C   UNL     1      -1.389   2.272  -0.504  1.00  0.00     0.006 C 
ENDBRANCH   5  14
ENDBRANCH   2   4
ENDBRANCH   1   2
BRANCH   1  16
ATOM     16  C   UNL     1      -2.623  -1.535  -1.867  1.00  0.00     0.021 CG0
ATOM     17  G   UNL     1      -3.628  -2.700  -1.848  1.00  0.00     0.000 G0
ENDBRANCH   1  16
BRANCH   1  18
ATOM     18  C   UNL     1      -0.784  -3.254  -1.318  1.00  0.00     0.035 C 
BRANCH  18  19
ATOM     19  C   UNL     1      -1.359  -4.261  -0.297  1.00  0.00     0.126 C 
BRANCH  19  20
ATOM     20  N   UNL     1      -2.730  -3.965   0.141  1.00  0.00    -0.318 N 
ATOM     21  C   UNL     1      -3.298  -4.369   1.291  1.00  0.00     0.225 A 
ATOM     22  C   UNL     1      -3.736  -3.333  -0.498  1.00  0.00     0.132 A 
ATOM     23  N   UNL     1      -4.587  -3.983   1.361  1.00  0.00    -0.139 NA
ATOM     24  N   UNL     1      -4.862  -3.332   0.240  1.00  0.00    -0.136 NA
BRANCH  22  25
ATOM     25  C   UNL     1      -3.628  -2.700  -1.848  1.00  0.00     0.078 CG0
ATOM     26  G   UNL     1      -2.623  -1.535  -1.867  1.00  0.00     0.000 G0
ENDBRANCH  22  25
ENDBRANCH  19  20
ENDBRANCH  18  19
ENDBRANCH   1  18
TORSDOF 3
