REMARK SMILES Cn1c(=O)n(C)c2cc(S(=O)(=O)Nc3ccc4c(c3)NCC4)c(Br)cc21
REMARK SMILES IDX 10 1 11 2 12 3 9 4 2 5 3 6 26 7 4 8 5 9 25 10 7 11 23 12
REMARK SMILES IDX 8 13 1 14 6 15 24 16 13 17 14 19 15 20 19 21 16 22 18 23
REMARK SMILES IDX 17 24 20 25 22 26 21 27
REMARK H PARENT 13 18 20 28
ROOT
ATOM      1  S   UNL     1      -0.083   0.247  -0.307  1.00  0.00     0.263 S 
ATOM      2  O   UNL     1       0.324   0.524   1.113  1.00  0.00    -0.201 OA
ATOM      3  O   UNL     1      -0.443   1.541  -0.982  1.00  0.00    -0.201 OA
ENDROOT
BRANCH   1   4
ATOM      4  C   UNL     1       1.253  -0.499  -1.192  1.00  0.00     0.104 A 
ATOM      5  N   UNL     1       4.544  -2.175  -3.011  1.00  0.00    -0.295 N 
ATOM      6  C   UNL     1       5.384  -2.071  -1.952  1.00  0.00     0.328 A 
ATOM      7  C   UNL     1       3.378  -1.673  -2.557  1.00  0.00     0.070 A 
ATOM      8  O   UNL     1       6.602  -2.390  -1.996  1.00  0.00    -0.248 OA
ATOM      9  N   UNL     1       4.783  -1.565  -0.846  1.00  0.00    -0.295 N 
ATOM     10  C   UNL     1       2.187  -1.469  -3.250  1.00  0.00     0.045 A 
ATOM     11  C   UNL     1       3.522  -1.306  -1.247  1.00  0.00     0.070 A 
ATOM     12  C   UNL     1       1.110  -0.878  -2.560  1.00  0.00     0.040 A 
ATOM     13  C   UNL     1       2.483  -0.713  -0.531  1.00  0.00     0.052 A 
ATOM     14  C   UNL     1       4.869  -2.588  -4.374  1.00  0.00     0.155 C 
ATOM     15  C   UNL     1       5.395  -1.238   0.438  1.00  0.00     0.155 C 
ATOM     16  Br  UNL     1      -0.521  -0.592  -3.536  1.00  0.00    -0.049 Br
ENDBRANCH   1   4
BRANCH   1  17
ATOM     17  N   UNL     1      -1.445  -0.830  -0.308  1.00  0.00    -0.280 N 
ATOM     18  H   UNL     1      -1.280  -1.805  -0.640  1.00  0.00     0.180 HD
BRANCH  17  19
ATOM     19  C   UNL     1      -2.792  -0.396  -0.067  1.00  0.00     0.051 A 
ATOM     20  C   UNL     1      -3.072   0.812   0.622  1.00  0.00     0.027 A 
ATOM     21  C   UNL     1      -3.863  -1.194  -0.521  1.00  0.00     0.052 A 
ATOM     22  C   UNL     1      -4.400   1.226   0.825  1.00  0.00     0.008 A 
ATOM     23  C   UNL     1      -5.167  -0.753  -0.302  1.00  0.00     0.039 A 
ATOM     24  C   UNL     1      -5.431   0.420   0.343  1.00  0.00    -0.023 A 
ATOM     25  N   UNL     1      -6.351  -1.400  -0.714  1.00  0.00    -0.384 N 
ATOM     26  C   UNL     1      -6.901   0.658   0.405  1.00  0.00     0.059 C 
ATOM     27  C   UNL     1      -7.493  -0.577  -0.321  1.00  0.00     0.117 C 
ATOM     28  H   UNL     1      -6.402  -2.312  -1.221  1.00  0.00     0.160 HD
ENDBRANCH  17  19
ENDBRANCH   1  17
TORSDOF 3
