REMARK SMILES O=C(Nc1cccc(CCO)c1)c1c[nH]c2ncnc(O)c12
REMARK SMILES IDX 4 1 5 2 6 3 7 4 8 5 12 6 3 7 1 8 2 9 13 11 14 12 22 13 15 14
REMARK SMILES IDX 20 15 16 16 19 17 17 18 18 19 21 21 9 23 10 24 11 25
REMARK H PARENT 3 10 15 20 21 22 11 26
ROOT
ATOM      1  C   UNL     1       0.695  -0.534  -0.811  1.00  0.00     0.041 A 
ATOM      2  C   UNL     1       1.505  -0.786  -1.932  1.00  0.00     0.026 A 
ATOM      3  C   UNL     1       1.887  -2.092  -2.245  1.00  0.00     0.002 A 
ATOM      4  C   UNL     1       1.481  -3.156  -1.437  1.00  0.00     0.004 A 
ATOM      5  C   UNL     1       0.702  -2.918  -0.294  1.00  0.00    -0.044 A 
ATOM      6  C   UNL     1       0.312  -1.604   0.012  1.00  0.00     0.030 A 
ENDROOT
BRANCH   1   7
ATOM      7  N   UNL     1       0.300   0.801  -0.456  1.00  0.00    -0.322 N 
ATOM      8  O   UNL     1      -0.116   1.552  -2.641  1.00  0.00    -0.269 OA
ATOM      9  C   UNL     1      -0.110   1.800  -1.405  1.00  0.00     0.258 C 
ATOM     10  H   UNL     1       0.217   1.027   0.561  1.00  0.00     0.170 HD
BRANCH   9  11
ATOM     11  C   UNL     1      -0.489   3.144  -0.948  1.00  0.00     0.072 A 
ATOM     12  C   UNL     1       0.057   4.330  -1.435  1.00  0.00     0.099 A 
ATOM     13  C   UNL     1      -1.303   3.512   0.116  1.00  0.00     0.093 A 
ATOM     14  N   UNL     1      -0.366   5.383  -0.701  1.00  0.00    -0.345 N 
ATOM     15  C   UNL     1      -2.165   2.827   0.982  1.00  0.00     0.224 A 
ATOM     16  C   UNL     1      -1.179   4.870   0.234  1.00  0.00     0.145 A 
ATOM     17  N   UNL     1      -2.780   3.546   1.966  1.00  0.00    -0.201 NA
ATOM     18  N   UNL     1      -1.806   5.572   1.208  1.00  0.00    -0.218 NA
ATOM     19  C   UNL     1      -2.600   4.897   2.088  1.00  0.00     0.228 A 
ATOM     20  H   UNL     1      -0.097   6.384  -0.825  1.00  0.00     0.167 HD
BRANCH  15  21
ATOM     21  O   UNL     1      -2.459   1.472   0.848  1.00  0.00    -0.493 OA
ATOM     22  H   UNL     1      -2.201   0.937   0.030  1.00  0.00     0.295 HD
ENDBRANCH  15  21
ENDBRANCH   9  11
ENDBRANCH   1   7
BRANCH   5  23
ATOM     23  C   UNL     1       0.245  -4.064   0.570  1.00  0.00     0.063 C 
BRANCH  23  24
ATOM     24  C   UNL     1      -1.152  -4.538   0.170  1.00  0.00     0.161 C 
BRANCH  24  25
ATOM     25  O   UNL     1      -1.131  -5.059  -1.130  1.00  0.00    -0.396 OA
ATOM     26  H   UNL     1      -2.062  -5.338  -1.330  1.00  0.00     0.210 HD
ENDBRANCH  24  25
ENDBRANCH  23  24
ENDBRANCH   5  23
TORSDOF 6
