REMARK SMILES Cn1ncc(C(=O)N2CCC(Oc3ccc(Cl)cc3)CC2)c1C(F)F
REMARK SMILES IDX 6 1 7 2 8 3 9 4 10 5 11 6 20 7 21 8 5 9 2 10 3 11 22 12 4 13
REMARK SMILES IDX 1 14 23 15 24 16 25 17 12 18 13 19 14 20 19 21 15 22 18 23
REMARK SMILES IDX 16 24 17 25
REMARK H PARENT
ROOT
ATOM      1  C   UNL     1      -0.545  -0.420  -2.497  1.00  0.00     0.257 C 
ATOM      2  O   UNL     1      -0.465  -1.128  -3.537  1.00  0.00    -0.269 OA
ATOM      3  N   UNL     1       0.653   0.103  -1.892  1.00  0.00    -0.338 N 
ATOM      4  C   UNL     1       1.907  -0.649  -2.055  1.00  0.00     0.123 C 
ATOM      5  C   UNL     1       3.086   0.043  -1.357  1.00  0.00     0.067 C 
ATOM      6  C   UNL     1       2.662   0.589   0.011  1.00  0.00     0.176 C 
ATOM      7  C   UNL     1       1.537   1.643  -0.137  1.00  0.00     0.067 C 
ATOM      8  C   UNL     1       0.694   1.495  -1.418  1.00  0.00     0.123 C 
ENDROOT
BRANCH   1   9
ATOM      9  C   UNL     1      -1.880  -0.124  -1.947  1.00  0.00     0.087 A 
ATOM     10  N   UNL     1      -3.600   0.261  -0.609  1.00  0.00    -0.266 N 
ATOM     11  N   UNL     1      -4.013   0.502  -1.844  1.00  0.00    -0.180 NA
ATOM     12  C   UNL     1      -2.313  -0.157  -0.628  1.00  0.00     0.117 A 
ATOM     13  C   UNL     1      -2.984   0.267  -2.680  1.00  0.00     0.149 A 
ATOM     14  C   UNL     1      -4.464   0.406   0.558  1.00  0.00     0.174 C 
BRANCH  12  15
ATOM     15  C   UNL     1      -1.517  -0.572   0.583  1.00  0.00     0.391 C 
ATOM     16  F   UNL     1      -2.320  -1.241   1.487  1.00  0.00    -0.203 F 
ATOM     17  F   UNL     1      -0.487  -1.420   0.224  1.00  0.00    -0.203 F 
ENDBRANCH  12  15
ENDBRANCH   1   9
BRANCH   6  18
ATOM     18  O   UNL     1       2.232  -0.501   0.832  1.00  0.00    -0.490 OA
BRANCH  18  19
ATOM     19  C   UNL     1       2.028  -0.452   2.221  1.00  0.00     0.119 A 
ATOM     20  C   UNL     1       1.518  -1.592   2.854  1.00  0.00     0.048 A 
ATOM     21  C   UNL     1       2.315   0.692   2.994  1.00  0.00     0.048 A 
ATOM     22  C   UNL     1       1.287  -1.596   4.233  1.00  0.00     0.024 A 
ATOM     23  C   UNL     1       2.083   0.685   4.373  1.00  0.00     0.024 A 
ATOM     24  C   UNL     1       1.569  -0.457   4.993  1.00  0.00     0.041 A 
ATOM     25  Cl  UNL     1       1.278  -0.462   6.723  1.00  0.00    -0.084 Cl
ENDBRANCH  18  19
ENDBRANCH   6  18
TORSDOF 4
