REMARK SMILES COC(=O)c1ccc(Cn2cc(Cn3cccn3)nn2)cc1C
REMARK SMILES IDX 5 1 6 2 7 3 8 4 21 5 22 6 23 7 3 8 4 9 2 10 1 11 9 12 10 13
REMARK SMILES IDX 11 14 20 15 12 16 19 17 13 18 14 19 15 20 18 21 16 22 17 23
REMARK H PARENT
ROOT
ATOM      1  C   UNL     1      -1.409  -2.103  -0.878  1.00  0.00     0.063 A 
ATOM      2  C   UNL     1      -0.007  -2.166  -0.993  1.00  0.00     0.016 A 
ATOM      3  C   UNL     1       0.692  -1.238  -1.764  1.00  0.00     0.006 A 
ATOM      4  C   UNL     1       0.007  -0.230  -2.450  1.00  0.00    -0.026 A 
ATOM      5  C   UNL     1      -1.387  -0.152  -2.346  1.00  0.00     0.010 A 
ATOM      6  C   UNL     1      -2.110  -1.089  -1.585  1.00  0.00    -0.036 A 
ATOM      7  C   UNL     1      -3.612  -0.977  -1.552  1.00  0.00     0.045 C 
ENDROOT
BRANCH   1   8
ATOM      8  C   UNL     1      -2.091  -3.101  -0.014  1.00  0.00     0.338 C 
ATOM      9  O   UNL     1      -1.546  -4.219   0.199  1.00  0.00    -0.246 OA
BRANCH   8  10
ATOM     10  O   UNL     1      -3.313  -2.798   0.596  1.00  0.00    -0.465 OA
ATOM     11  C   UNL     1      -4.003  -3.716   1.435  1.00  0.00     0.282 C 
ENDBRANCH   8  10
ENDBRANCH   1   8
BRANCH   4  12
ATOM     12  C   UNL     1       0.768   0.807  -3.229  1.00  0.00     0.181 C 
BRANCH  12  13
ATOM     13  N   UNL     1       1.068   1.946  -2.370  1.00  0.00    -0.248 N 
ATOM     14  C   UNL     1       2.090   2.049  -1.504  1.00  0.00     0.137 A 
ATOM     15  N   UNL     1       0.281   3.000  -2.222  1.00  0.00    -0.067 NA
ATOM     16  C   UNL     1       1.903   3.240  -0.839  1.00  0.00     0.104 A 
ATOM     17  N   UNL     1       0.767   3.810  -1.292  1.00  0.00    -0.133 NA
BRANCH  16  18
ATOM     18  C   UNL     1       2.715   3.758   0.303  1.00  0.00     0.203 C 
BRANCH  18  19
ATOM     19  N   UNL     1       2.300   3.106   1.539  1.00  0.00    -0.267 N 
ATOM     20  C   UNL     1       1.286   3.492   2.335  1.00  0.00     0.109 A 
ATOM     21  N   UNL     1       2.821   1.975   1.987  1.00  0.00    -0.181 NA
ATOM     22  C   UNL     1       1.164   2.573   3.354  1.00  0.00     0.042 A 
ATOM     23  C   UNL     1       2.147   1.634   3.102  1.00  0.00     0.135 A 
ENDBRANCH  18  19
ENDBRANCH  16  18
ENDBRANCH  12  13
ENDBRANCH   4  12
TORSDOF 6
