REMARK SMILES COc1ccnc(N(C)C(=O)c2ccc(Oc3ccc(C(F)(F)F)cn3)cc2)n1
REMARK SMILES IDX 12 1 13 2 14 3 15 4 27 5 28 6 10 7 11 8 8 9 9 10 7 11 3 12
REMARK SMILES IDX 4 13 29 14 5 15 6 16 2 17 1 18 16 19 17 20 18 21 26 22 19 23
REMARK SMILES IDX 25 24 20 25 21 26 22 27 23 28 24 29
REMARK H PARENT
ROOT
ATOM      1  C   UNL     1       0.311   0.492  -1.345  1.00  0.00     0.040 A 
ATOM      2  C   UNL     1       0.980  -0.663  -1.784  1.00  0.00     0.018 A 
ATOM      3  C   UNL     1       0.328  -1.899  -1.799  1.00  0.00     0.048 A 
ATOM      4  C   UNL     1      -1.007  -2.002  -1.370  1.00  0.00     0.129 A 
ATOM      5  C   UNL     1      -1.684  -0.848  -0.963  1.00  0.00     0.048 A 
ATOM      6  C   UNL     1      -1.034   0.389  -0.947  1.00  0.00     0.018 A 
ENDROOT
BRANCH   1   7
ATOM      7  C   UNL     1       1.005   1.803  -1.335  1.00  0.00     0.260 C 
ATOM      8  O   UNL     1       2.008   1.979  -2.079  1.00  0.00    -0.269 OA
BRANCH   7   9
ATOM      9  N   UNL     1       0.542   2.889  -0.511  1.00  0.00    -0.280 N 
ATOM     10  C   UNL     1       0.513   4.242  -1.074  1.00  0.00     0.157 C 
BRANCH   9  11
ATOM     11  C   UNL     1       0.326   2.700   0.903  1.00  0.00     0.235 A 
ATOM     12  C   UNL     1      -0.423   3.547   2.991  1.00  0.00     0.217 A 
ATOM     13  C   UNL     1      -0.076   2.347   3.610  1.00  0.00     0.088 A 
ATOM     14  N   UNL     1      -0.214   3.699   1.655  1.00  0.00    -0.177 NA
ATOM     15  C   UNL     1       0.480   1.333   2.833  1.00  0.00     0.121 A 
ATOM     16  N   UNL     1       0.672   1.527   1.503  1.00  0.00    -0.221 NA
BRANCH  12  17
ATOM     17  O   UNL     1      -0.980   4.580   3.751  1.00  0.00    -0.481 OA
ATOM     18  C   UNL     1      -1.354   5.832   3.189  1.00  0.00     0.280 C 
ENDBRANCH  12  17
ENDBRANCH   9  11
ENDBRANCH   7   9
ENDBRANCH   1   7
BRANCH   4  19
ATOM     19  O   UNL     1      -1.703  -3.220  -1.380  1.00  0.00    -0.439 OA
BRANCH  19  20
ATOM     20  C   UNL     1      -1.130  -4.481  -1.167  1.00  0.00     0.219 A 
ATOM     21  C   UNL     1      -1.843  -5.624  -1.534  1.00  0.00     0.069 A 
ATOM     22  N   UNL     1       0.087  -4.610  -0.571  1.00  0.00    -0.221 NA
ATOM     23  C   UNL     1      -1.287  -6.884  -1.309  1.00  0.00     0.020 A 
ATOM     24  C   UNL     1       0.651  -5.826  -0.341  1.00  0.00     0.128 A 
ATOM     25  C   UNL     1      -0.015  -7.000  -0.728  1.00  0.00     0.074 A 
BRANCH  25  26
ATOM     26  C   UNL     1       0.574  -8.356  -0.432  1.00  0.00     0.417 C 
ATOM     27  F   UNL     1       0.178  -9.277  -1.386  1.00  0.00    -0.166 F 
ATOM     28  F   UNL     1       0.139  -8.779   0.810  1.00  0.00    -0.166 F 
ATOM     29  F   UNL     1       1.957  -8.300  -0.430  1.00  0.00    -0.166 F 
ENDBRANCH  25  26
ENDBRANCH  19  20
ENDBRANCH   4  19
TORSDOF 7
