REMARK SMILES O=C(Nc1cccc(OC(F)F)c1)c1cccc(Nc2ncccn2)c1
REMARK SMILES IDX 4 1 5 2 6 3 7 4 8 5 13 6 3 7 1 8 2 9 14 11 15 12 26 13 16 14
REMARK SMILES IDX 18 15 17 16 19 17 20 19 21 20 25 21 22 22 24 23 23 24 9 25
REMARK SMILES IDX 10 26 11 27 12 28
REMARK H PARENT 3 10 19 18
ROOT
ATOM      1  C   UNL     1       0.127   2.044   0.683  1.00  0.00     0.045 A 
ATOM      2  C   UNL     1      -0.490   3.304   0.778  1.00  0.00     0.026 A 
ATOM      3  C   UNL     1       0.277   4.446   1.022  1.00  0.00     0.006 A 
ATOM      4  C   UNL     1       1.663   4.345   1.157  1.00  0.00     0.047 A 
ATOM      5  C   UNL     1       2.299   3.104   1.039  1.00  0.00     0.128 A 
ATOM      6  C   UNL     1       1.523   1.954   0.794  1.00  0.00     0.072 A 
ENDROOT
BRANCH   1   7
ATOM      7  N   UNL     1      -0.634   0.856   0.406  1.00  0.00    -0.322 N 
ATOM      8  O   UNL     1      -2.437   1.380   1.806  1.00  0.00    -0.269 OA
ATOM      9  C   UNL     1      -1.933   0.584   0.968  1.00  0.00     0.255 C 
ATOM     10  H   UNL     1      -0.181   0.137  -0.200  1.00  0.00     0.170 HD
BRANCH   9  11
ATOM     11  C   UNL     1      -2.693  -0.630   0.585  1.00  0.00     0.042 A 
ATOM     12  C   UNL     1      -4.098  -0.606   0.600  1.00  0.00     0.014 A 
ATOM     13  C   UNL     1      -2.034  -1.823   0.234  1.00  0.00     0.040 A 
ATOM     14  C   UNL     1      -4.828  -1.745   0.255  1.00  0.00     0.003 A 
ATOM     15  C   UNL     1      -2.767  -2.964  -0.141  1.00  0.00     0.042 A 
ATOM     16  C   UNL     1      -4.167  -2.919  -0.111  1.00  0.00     0.026 A 
BRANCH  15  17
ATOM     17  N   UNL     1      -2.109  -4.194  -0.489  1.00  0.00    -0.324 N 
ATOM     18  H   UNL     1      -2.598  -5.093  -0.276  1.00  0.00     0.170 HD
BRANCH  17  19
ATOM     19  C   UNL     1      -0.870  -4.269  -1.209  1.00  0.00     0.227 A 
ATOM     20  N   UNL     1      -0.215  -5.459  -1.295  1.00  0.00    -0.221 NA
ATOM     21  N   UNL     1      -0.365  -3.177  -1.848  1.00  0.00    -0.221 NA
ATOM     22  C   UNL     1       0.947  -5.572  -1.990  1.00  0.00     0.117 A 
ATOM     23  C   UNL     1       0.794  -3.249  -2.552  1.00  0.00     0.117 A 
ATOM     24  C   UNL     1       1.481  -4.459  -2.637  1.00  0.00     0.040 A 
ENDBRANCH  17  19
ENDBRANCH  15  17
ENDBRANCH   9  11
ENDBRANCH   1   7
BRANCH   5  25
ATOM     25  O   UNL     1       3.696   3.059   1.172  1.00  0.00    -0.435 OA
BRANCH  25  26
ATOM     26  C   UNL     1       4.486   1.879   1.051  1.00  0.00     0.542 C 
ATOM     27  F   UNL     1       4.403   1.387  -0.239  1.00  0.00    -0.167 F 
ATOM     28  F   UNL     1       5.803   2.188   1.330  1.00  0.00    -0.167 F 
ENDBRANCH  25  26
ENDBRANCH   5  25
TORSDOF 6
