REMARK SMILES C[C@@H](Nc1nc2ccccc2n2nnnc12)c1cnccn1
REMARK SMILES IDX 1 1 2 2 3 3 4 5 5 6 16 7 6 8 15 9 12 10 7 11 11 12 14 13
REMARK SMILES IDX 13 14 8 15 10 16 9 17 17 18 18 19 22 20 19 21 21 22 20 23
REMARK H PARENT 3 4
ROOT
ATOM      1  C   UNL     1      -0.945   2.192  -0.225  1.00  0.00     0.038 C 
ATOM      2  C   UNL     1      -0.892   1.694  -1.677  1.00  0.00     0.128 C 
ENDROOT
BRANCH   2   3
ATOM      3  N   UNL     1       0.455   1.226  -2.021  1.00  0.00    -0.359 N 
ATOM      4  H   UNL     1       0.991   1.782  -2.725  1.00  0.00     0.162 HD
BRANCH   3   5
ATOM      5  C   UNL     1       1.069   0.046  -1.472  1.00  0.00     0.174 A 
ATOM      6  N   UNL     1       0.406  -0.753  -0.581  1.00  0.00    -0.225 NA
ATOM      7  C   UNL     1       2.362  -0.335  -1.835  1.00  0.00     0.222 A 
ATOM      8  C   UNL     1       0.973  -1.884  -0.059  1.00  0.00     0.091 A 
ATOM      9  N   UNL     1       3.210   0.272  -2.683  1.00  0.00    -0.105 NA
ATOM     10  N   UNL     1       2.917  -1.434  -1.327  1.00  0.00    -0.188 N 
ATOM     11  C   UNL     1       0.270  -2.683   0.847  1.00  0.00     0.031 A 
ATOM     12  C   UNL     1       2.287  -2.248  -0.444  1.00  0.00     0.095 A 
ATOM     13  N   UNL     1       4.296  -0.501  -2.667  1.00  0.00    -0.023 NA
ATOM     14  N   UNL     1       4.124  -1.535  -1.849  1.00  0.00    -0.039 NA
ATOM     15  C   UNL     1       0.868  -3.837   1.369  1.00  0.00     0.002 A 
ATOM     16  C   UNL     1       2.882  -3.402   0.081  1.00  0.00     0.031 A 
ATOM     17  C   UNL     1       2.168  -4.194   0.988  1.00  0.00     0.002 A 
ENDBRANCH   3   5
ENDBRANCH   2   3
BRANCH   2  18
ATOM     18  C   UNL     1      -1.932   0.651  -2.036  1.00  0.00     0.081 A 
ATOM     19  C   UNL     1      -2.575  -0.163  -1.081  1.00  0.00     0.137 A 
ATOM     20  N   UNL     1      -2.225   0.459  -3.352  1.00  0.00    -0.256 NA
ATOM     21  N   UNL     1      -3.470  -1.099  -1.492  1.00  0.00    -0.261 NA
ATOM     22  C   UNL     1      -3.122  -0.476  -3.758  1.00  0.00     0.131 A 
ATOM     23  C   UNL     1      -3.759  -1.272  -2.807  1.00  0.00     0.131 A 
ENDBRANCH   2  18
TORSDOF 3
