REMARK SMILES O=C(Nc1ccc(-n2cccn2)nc1)[C@H]1C[C@H]1C1CCCC1
REMARK SMILES IDX 1 1 2 2 3 3 15 5 16 6 17 7 18 8 19 9 22 10 20 11 21 12 4 13
REMARK SMILES IDX 5 14 14 15 6 16 13 17 7 18 8 19 9 20 12 21 10 22 11 23
REMARK H PARENT 3 4
ROOT
ATOM      1  O   UNL     1      -1.527   0.665  -1.780  1.00  0.00    -0.274 OA
ATOM      2  C   UNL     1      -1.690   0.870  -0.547  1.00  0.00     0.227 C 
ATOM      3  N   UNL     1      -0.574   0.851   0.355  1.00  0.00    -0.324 N 
ATOM      4  H   UNL     1      -0.779   0.895   1.379  1.00  0.00     0.169 HD
ENDROOT
BRANCH   2   5
ATOM      5  C   UNL     1      -3.067   1.148  -0.010  1.00  0.00     0.082 C 
ATOM      6  C   UNL     1      -4.219   0.440  -0.720  1.00  0.00     0.018 C 
ATOM      7  C   UNL     1      -3.800  -0.011   0.675  1.00  0.00     0.005 C 
BRANCH   7   8
ATOM      8  C   UNL     1      -3.146  -1.414   0.717  1.00  0.00    -0.007 C 
ATOM      9  C   UNL     1      -4.220  -2.507   0.786  1.00  0.00     0.004 C 
ATOM     10  C   UNL     1      -2.282  -1.581   1.977  1.00  0.00     0.004 C 
ATOM     11  C   UNL     1      -4.208  -3.023   2.214  1.00  0.00     0.000 C 
ATOM     12  C   UNL     1      -2.785  -2.826   2.693  1.00  0.00     0.000 C 
ENDBRANCH   7   8
ENDBRANCH   2   5
BRANCH   3  13
ATOM     13  C   UNL     1       0.785   0.616  -0.046  1.00  0.00     0.059 A 
ATOM     14  C   UNL     1       1.312   1.157  -1.228  1.00  0.00     0.031 A 
ATOM     15  C   UNL     1       1.635  -0.121   0.787  1.00  0.00     0.139 A 
ATOM     16  C   UNL     1       2.645   0.925  -1.573  1.00  0.00     0.051 A 
ATOM     17  N   UNL     1       2.929  -0.335   0.432  1.00  0.00    -0.235 NA
ATOM     18  C   UNL     1       3.459   0.158  -0.722  1.00  0.00     0.153 A 
BRANCH  18  19
ATOM     19  N   UNL     1       4.839  -0.112  -1.029  1.00  0.00    -0.223 N 
ATOM     20  C   UNL     1       5.531   0.260  -2.127  1.00  0.00     0.117 A 
ATOM     21  N   UNL     1       5.633  -0.801  -0.223  1.00  0.00    -0.175 NA
ATOM     22  C   UNL     1       6.820  -0.213  -2.013  1.00  0.00     0.042 A 
ATOM     23  C   UNL     1       6.846  -0.875  -0.802  1.00  0.00     0.135 A 
ENDBRANCH  18  19
ENDBRANCH   3  13
TORSDOF 4
