REMARK SMILES O=C(Nc1cccc(OC(F)F)c1)c1ccc(Nc2ncccn2)cc1
REMARK SMILES IDX 4 1 5 2 6 3 7 4 8 5 13 6 3 7 1 8 2 9 14 11 15 12 26 13 16 14
REMARK SMILES IDX 25 15 17 16 18 17 19 19 20 20 24 21 21 22 23 23 22 24 9 25
REMARK SMILES IDX 10 26 11 27 12 28
REMARK H PARENT 3 10 18 18
ROOT
ATOM      1  C   UNL     1      -1.645   1.842  -2.714  1.00  0.00     0.045 A 
ATOM      2  C   UNL     1      -2.612   2.759  -3.150  1.00  0.00     0.026 A 
ATOM      3  C   UNL     1      -2.693   3.114  -4.497  1.00  0.00     0.006 A 
ATOM      4  C   UNL     1      -1.800   2.567  -5.421  1.00  0.00     0.047 A 
ATOM      5  C   UNL     1      -0.812   1.667  -5.006  1.00  0.00     0.128 A 
ATOM      6  C   UNL     1      -0.733   1.312  -3.645  1.00  0.00     0.072 A 
ENDROOT
BRANCH   1   7
ATOM      7  N   UNL     1      -1.569   1.508  -1.317  1.00  0.00    -0.322 N 
ATOM      8  O   UNL     1      -1.176  -0.780  -1.579  1.00  0.00    -0.269 OA
ATOM      9  C   UNL     1      -1.125   0.231  -0.826  1.00  0.00     0.255 C 
ATOM     10  H   UNL     1      -1.967   2.187  -0.629  1.00  0.00     0.170 HD
BRANCH   9  11
ATOM     11  C   UNL     1      -0.655   0.075   0.572  1.00  0.00     0.040 A 
ATOM     12  C   UNL     1      -0.617  -1.198   1.168  1.00  0.00     0.016 A 
ATOM     13  C   UNL     1      -0.228   1.187   1.320  1.00  0.00     0.016 A 
ATOM     14  C   UNL     1      -0.168  -1.355   2.483  1.00  0.00     0.027 A 
ATOM     15  C   UNL     1       0.219   1.028   2.635  1.00  0.00     0.027 A 
ATOM     16  C   UNL     1       0.271  -0.243   3.221  1.00  0.00     0.041 A 
BRANCH  16  17
ATOM     17  N   UNL     1       0.714  -0.375   4.583  1.00  0.00    -0.324 N 
ATOM     18  H   UNL     1       0.550   0.426   5.233  1.00  0.00     0.170 HD
BRANCH  17  19
ATOM     19  C   UNL     1       1.465  -1.491   5.083  1.00  0.00     0.227 A 
ATOM     20  N   UNL     1       1.644  -1.631   6.424  1.00  0.00    -0.221 NA
ATOM     21  N   UNL     1       2.044  -2.381   4.231  1.00  0.00    -0.221 NA
ATOM     22  C   UNL     1       2.374  -2.658   6.931  1.00  0.00     0.117 A 
ATOM     23  C   UNL     1       2.781  -3.422   4.699  1.00  0.00     0.117 A 
ATOM     24  C   UNL     1       2.961  -3.585   6.071  1.00  0.00     0.040 A 
ENDBRANCH  17  19
ENDBRANCH  16  17
ENDBRANCH   9  11
ENDBRANCH   1   7
BRANCH   5  25
ATOM     25  O   UNL     1       0.069   1.157  -5.973  1.00  0.00    -0.435 OA
BRANCH  25  26
ATOM     26  C   UNL     1       1.104   0.213  -5.713  1.00  0.00     0.542 C 
ATOM     27  F   UNL     1       1.820  -0.004  -6.874  1.00  0.00    -0.167 F 
ATOM     28  F   UNL     1       0.554  -0.986  -5.294  1.00  0.00    -0.167 F 
ENDBRANCH  25  26
ENDBRANCH   5  25
TORSDOF 6
