REMARK SMILES O=C(NCCc1csc(-c2ccccc2)n1)c1ccc(F)c(F)c1
REMARK SMILES IDX 4 1 3 2 1 3 2 4 17 6 18 7 24 8 19 9 22 10 20 11 23 12 21 13
REMARK SMILES IDX 5 14 6 15 7 16 16 17 8 18 9 19 10 20 11 21 15 22 12 23 14 24
REMARK SMILES IDX 13 25
REMARK H PARENT 3 5
ROOT
ATOM      1  C   UNL     1      -0.962  -1.211  -0.794  1.00  0.00     0.122 C 
ENDROOT
BRANCH   1   2
ATOM      2  N   UNL     1      -1.059  -2.626  -1.150  1.00  0.00    -0.352 N 
ATOM      3  O   UNL     1      -2.765  -2.301  -2.711  1.00  0.00    -0.269 OA
ATOM      4  C   UNL     1      -2.029  -3.118  -2.091  1.00  0.00     0.251 C 
ATOM      5  H   UNL     1      -0.379  -3.283  -0.707  1.00  0.00     0.163 HD
BRANCH   4   6
ATOM      6  C   UNL     1      -2.172  -4.569  -2.359  1.00  0.00     0.042 A 
ATOM      7  C   UNL     1      -1.821  -5.529  -1.391  1.00  0.00     0.017 A 
ATOM      8  C   UNL     1      -2.691  -5.007  -3.592  1.00  0.00     0.056 A 
ATOM      9  C   UNL     1      -1.968  -6.893  -1.660  1.00  0.00     0.043 A 
ATOM     10  C   UNL     1      -2.836  -6.372  -3.858  1.00  0.00     0.159 A 
ATOM     11  C   UNL     1      -2.472  -7.315  -2.893  1.00  0.00     0.158 A 
ATOM     12  F   UNL     1      -3.329  -6.779  -5.053  1.00  0.00    -0.204 F 
ATOM     13  F   UNL     1      -2.614  -8.640  -3.148  1.00  0.00    -0.204 F 
ENDBRANCH   4   6
ENDBRANCH   1   2
BRANCH   1  14
ATOM     14  C   UNL     1      -0.240  -0.432  -1.896  1.00  0.00     0.078 C 
BRANCH  14  15
ATOM     15  C   UNL     1      -0.112   1.012  -1.519  1.00  0.00     0.054 A 
ATOM     16  C   UNL     1      -1.095   1.958  -1.793  1.00  0.00     0.091 A 
ATOM     17  N   UNL     1       0.961   1.477  -0.821  1.00  0.00    -0.241 NA
ATOM     18  S   UNL     1      -0.583   3.424  -1.152  1.00  0.00    -0.122 S 
ATOM     19  C   UNL     1       0.860   2.797  -0.544  1.00  0.00     0.123 A 
BRANCH  19  20
ATOM     20  C   UNL     1       1.890   3.556   0.202  1.00  0.00     0.010 A 
ATOM     21  C   UNL     1       3.050   2.907   0.663  1.00  0.00     0.011 A 
ATOM     22  C   UNL     1       1.731   4.931   0.462  1.00  0.00     0.011 A 
ATOM     23  C   UNL     1       4.027   3.617   1.368  1.00  0.00     0.001 A 
ATOM     24  C   UNL     1       2.711   5.636   1.167  1.00  0.00     0.001 A 
ATOM     25  C   UNL     1       3.858   4.980   1.620  1.00  0.00     0.000 A 
ENDBRANCH  19  20
ENDBRANCH  14  15
ENDBRANCH   1  14
TORSDOF 5
