REMARK SMILES O=C(Nc1cccc(OCCF)c1)c1ccc(Nc2ncccn2)cc1
REMARK SMILES IDX 4 1 5 2 6 3 7 4 8 5 13 6 3 7 1 8 2 9 14 11 15 12 26 13 16 14
REMARK SMILES IDX 25 15 17 16 18 17 19 19 20 20 24 21 21 22 23 23 22 24 9 25
REMARK SMILES IDX 10 26 11 27 12 28
REMARK H PARENT 3 10 18 18
ROOT
ATOM      1  C   UNL     1      -0.965   1.395   2.662  1.00  0.00     0.045 A 
ATOM      2  C   UNL     1      -0.115   1.399   3.781  1.00  0.00     0.026 A 
ATOM      3  C   UNL     1      -0.647   1.472   5.069  1.00  0.00     0.006 A 
ATOM      4  C   UNL     1      -2.030   1.527   5.254  1.00  0.00     0.046 A 
ATOM      5  C   UNL     1      -2.897   1.498   4.156  1.00  0.00     0.121 A 
ATOM      6  C   UNL     1      -2.356   1.430   2.857  1.00  0.00     0.072 A 
ENDROOT
BRANCH   1   7
ATOM      7  N   UNL     1      -0.442   1.299   1.325  1.00  0.00    -0.322 N 
ATOM      8  O   UNL     1       1.346   2.777   1.596  1.00  0.00    -0.269 OA
ATOM      9  C   UNL     1       0.826   1.844   0.923  1.00  0.00     0.255 C 
ATOM     10  H   UNL     1      -1.067   0.912   0.582  1.00  0.00     0.170 HD
BRANCH   9  11
ATOM     11  C   UNL     1       1.508   1.361  -0.302  1.00  0.00     0.040 A 
ATOM     12  C   UNL     1       1.190   0.110  -0.862  1.00  0.00     0.016 A 
ATOM     13  C   UNL     1       2.500   2.146  -0.916  1.00  0.00     0.016 A 
ATOM     14  C   UNL     1       1.845  -0.341  -2.011  1.00  0.00     0.027 A 
ATOM     15  C   UNL     1       3.152   1.694  -2.067  1.00  0.00     0.027 A 
ATOM     16  C   UNL     1       2.845   0.441  -2.614  1.00  0.00     0.041 A 
BRANCH  16  17
ATOM     17  N   UNL     1       3.514   0.010  -3.811  1.00  0.00    -0.324 N 
ATOM     18  H   UNL     1       3.834   0.741  -4.486  1.00  0.00     0.170 HD
BRANCH  17  19
ATOM     19  C   UNL     1       3.872  -1.351  -4.090  1.00  0.00     0.227 A 
ATOM     20  N   UNL     1       3.840  -2.296  -3.111  1.00  0.00    -0.221 NA
ATOM     21  N   UNL     1       4.298  -1.689  -5.337  1.00  0.00    -0.221 NA
ATOM     22  C   UNL     1       4.206  -3.580  -3.363  1.00  0.00     0.117 A 
ATOM     23  C   UNL     1       4.673  -2.962  -5.629  1.00  0.00     0.117 A 
ATOM     24  C   UNL     1       4.632  -3.943  -4.639  1.00  0.00     0.040 A 
ENDBRANCH  17  19
ENDBRANCH  16  17
ENDBRANCH   9  11
ENDBRANCH   1   7
BRANCH   5  25
ATOM     25  O   UNL     1      -4.279   1.550   4.408  1.00  0.00    -0.491 OA
BRANCH  25  26
ATOM     26  C   UNL     1      -5.316   1.391   3.439  1.00  0.00     0.263 C 
BRANCH  26  27
ATOM     27  C   UNL     1      -5.567  -0.086   3.143  1.00  0.00     0.256 C 
ATOM     28  F   UNL     1      -4.468  -0.659   2.530  1.00  0.00    -0.247 F 
ENDBRANCH  26  27
ENDBRANCH  25  26
ENDBRANCH   5  25
TORSDOF 7
