REMARK SMILES CN1CCc2ccc(NC(=O)CN3CCCNC3=O)cc2C1=O
REMARK SMILES IDX 9 1 10 2 11 3 8 5 2 6 3 7 22 8 4 9 21 10 23 11 5 12 20 13
REMARK SMILES IDX 6 14 7 15 1 16 12 17 13 18 14 19 18 20 15 21 17 22 19 23
REMARK SMILES IDX 16 24
REMARK H PARENT 9 4 17 25
ROOT
ATOM      1  N   UNL     1       0.271   0.978  -2.383  1.00  0.00    -0.325 N 
ATOM      2  C   UNL     1      -0.424   0.216  -3.382  1.00  0.00     0.244 C 
ATOM      3  O   UNL     1      -0.136  -0.996  -3.581  1.00  0.00    -0.273 OA
ATOM      4  H   UNL     1       0.244   2.020  -2.456  1.00  0.00     0.169 HD
ENDROOT
BRANCH   1   5
ATOM      5  C   UNL     1       1.071   0.394  -1.341  1.00  0.00     0.042 A 
ATOM      6  N   UNL     1       2.089  -3.273   1.830  1.00  0.00    -0.341 N 
ATOM      7  C   UNL     1       3.459  -2.750   1.902  1.00  0.00     0.124 C 
ATOM      8  C   UNL     1       1.165  -2.673   0.905  1.00  0.00     0.253 C 
ATOM      9  C   UNL     1       3.452  -1.217   1.893  1.00  0.00     0.058 C 
ATOM     10  C   UNL     1       1.509  -1.379   0.278  1.00  0.00     0.045 A 
ATOM     11  O   UNL     1       0.068  -3.239   0.645  1.00  0.00    -0.269 OA
ATOM     12  C   UNL     1       2.646  -0.682   0.733  1.00  0.00    -0.033 A 
ATOM     13  C   UNL     1       0.725  -0.836  -0.754  1.00  0.00     0.040 A 
ATOM     14  C   UNL     1       2.963   0.563   0.175  1.00  0.00     0.007 A 
ATOM     15  C   UNL     1       2.182   1.095  -0.854  1.00  0.00     0.026 A 
ATOM     16  C   UNL     1       1.677  -4.419   2.644  1.00  0.00     0.147 C 
ENDBRANCH   1   5
BRANCH   2  17
ATOM     17  C   UNL     1      -1.512   0.852  -4.192  1.00  0.00     0.221 C 
BRANCH  17  18
ATOM     18  N   UNL     1      -2.817   0.549  -3.594  1.00  0.00    -0.315 N 
ATOM     19  C   UNL     1      -3.682  -0.470  -4.201  1.00  0.00     0.124 C 
ATOM     20  C   UNL     1      -3.275   1.257  -2.426  1.00  0.00     0.317 C 
ATOM     21  C   UNL     1      -4.474  -1.220  -3.127  1.00  0.00     0.043 C 
ATOM     22  N   UNL     1      -4.459   0.823  -1.748  1.00  0.00    -0.338 N 
ATOM     23  O   UNL     1      -2.626   2.240  -1.976  1.00  0.00    -0.249 OA
ATOM     24  C   UNL     1      -5.303  -0.236  -2.296  1.00  0.00     0.119 C 
ATOM     25  H   UNL     1      -4.793   1.353  -0.912  1.00  0.00     0.165 HD
ENDBRANCH  17  18
ENDBRANCH   2  17
TORSDOF 3
