REMARK SMILES Cc1ccc(C)c(S(=O)(=O)Nc2ccc(-c3cnc(C)o3)cc2)c1
REMARK SMILES IDX 11 1 12 3 15 4 14 5 22 6 13 7 23 8 16 9 19 10 18 11 21 12
REMARK SMILES IDX 17 13 20 14 8 15 9 16 10 17 7 18 24 19 5 20 2 21 4 22 3 23
REMARK SMILES IDX 6 24 1 25
REMARK H PARENT 11 2
ROOT
ATOM      1  N   UNL     1       2.103   0.469  -0.801  1.00  0.00    -0.280 N 
ATOM      2  H   UNL     1       2.626   1.057  -0.114  1.00  0.00     0.180 HD
ENDROOT
BRANCH   1   3
ATOM      3  C   UNL     1       1.303  -0.626  -0.317  1.00  0.00     0.049 A 
ATOM      4  C   UNL     1      -0.268  -2.741   0.705  1.00  0.00     0.019 A 
ATOM      5  C   UNL     1      -0.225  -2.488  -0.677  1.00  0.00     0.014 A 
ATOM      6  C   UNL     1       0.482  -1.927   1.568  1.00  0.00     0.014 A 
ATOM      7  C   UNL     1       0.553  -1.442  -1.183  1.00  0.00     0.027 A 
ATOM      8  C   UNL     1       1.258  -0.881   1.061  1.00  0.00     0.027 A 
BRANCH   4   9
ATOM      9  C   UNL     1      -1.085  -3.842   1.264  1.00  0.00     0.154 A 
ATOM     10  C   UNL     1      -1.973  -5.155   2.655  1.00  0.00     0.191 A 
ATOM     11  N   UNL     1      -2.457  -5.577   1.469  1.00  0.00    -0.222 NA
ATOM     12  O   UNL     1      -1.165  -4.126   2.541  1.00  0.00    -0.441 OA
ATOM     13  C   UNL     1      -1.885  -4.739   0.582  1.00  0.00     0.162 A 
ATOM     14  C   UNL     1      -2.346  -5.771   3.961  1.00  0.00     0.111 C 
ENDBRANCH   4   9
ENDBRANCH   1   3
BRANCH   1  15
ATOM     15  S   UNL     1       2.265   0.893  -2.478  1.00  0.00     0.262 S 
ATOM     16  O   UNL     1       2.796  -0.299  -3.223  1.00  0.00    -0.201 OA
ATOM     17  O   UNL     1       3.248   2.023  -2.596  1.00  0.00    -0.201 OA
BRANCH  15  18
ATOM     18  C   UNL     1       0.710   1.419  -3.148  1.00  0.00     0.090 A 
ATOM     19  C   UNL     1      -0.321   1.774  -2.261  1.00  0.00     0.026 A 
ATOM     20  C   UNL     1       0.487   1.512  -4.544  1.00  0.00    -0.031 A 
ATOM     21  C   UNL     1      -1.579   2.163  -2.740  1.00  0.00    -0.050 A 
ATOM     22  C   UNL     1      -0.776   1.911  -5.013  1.00  0.00     0.005 A 
ATOM     23  C   UNL     1      -1.797   2.240  -4.120  1.00  0.00     0.004 A 
ATOM     24  C   UNL     1       1.556   1.165  -5.546  1.00  0.00     0.046 C 
ATOM     25  C   UNL     1      -2.661   2.559  -1.779  1.00  0.00     0.044 C 
ENDBRANCH  15  18
ENDBRANCH   1  15
TORSDOF 4
