REMARK SMILES Cn1ncc(C(=O)N2CCC(Oc3ccc(Cl)cc3)CC2)c1C(F)F
REMARK SMILES IDX 6 1 7 2 8 3 9 4 10 5 11 6 20 7 21 8 5 9 2 10 3 11 22 12 4 13
REMARK SMILES IDX 1 14 23 15 24 16 25 17 12 18 13 19 14 20 19 21 15 22 18 23
REMARK SMILES IDX 16 24 17 25
REMARK H PARENT
ROOT
ATOM      1  C   UNL     1      -0.758  -1.116   1.990  1.00  0.00     0.257 C 
ATOM      2  O   UNL     1      -0.545  -1.002   3.227  1.00  0.00    -0.269 OA
ATOM      3  N   UNL     1      -0.138  -0.190   1.076  1.00  0.00    -0.338 N 
ATOM      4  C   UNL     1       1.122   0.463   1.459  1.00  0.00     0.123 C 
ATOM      5  C   UNL     1       1.946   0.802   0.212  1.00  0.00     0.067 C 
ATOM      6  C   UNL     1       1.150   1.599  -0.858  1.00  0.00     0.176 C 
ATOM      7  C   UNL     1      -0.358   1.659  -0.560  1.00  0.00     0.067 C 
ATOM      8  C   UNL     1      -0.890   0.301  -0.090  1.00  0.00     0.123 C 
ENDROOT
BRANCH   1   9
ATOM      9  C   UNL     1      -1.631  -2.205   1.506  1.00  0.00     0.087 A 
ATOM     10  N   UNL     1      -3.144  -3.818   1.378  1.00  0.00    -0.266 N 
ATOM     11  N   UNL     1      -2.444  -3.862   0.255  1.00  0.00    -0.180 NA
ATOM     12  C   UNL     1      -2.683  -2.823   2.167  1.00  0.00     0.117 A 
ATOM     13  C   UNL     1      -1.514  -2.889   0.308  1.00  0.00     0.149 A 
ATOM     14  C   UNL     1      -4.236  -4.739   1.675  1.00  0.00     0.174 C 
BRANCH  12  15
ATOM     15  C   UNL     1      -3.205  -2.491   3.538  1.00  0.00     0.391 C 
ATOM     16  F   UNL     1      -3.382  -1.125   3.660  1.00  0.00    -0.203 F 
ATOM     17  F   UNL     1      -2.307  -2.928   4.494  1.00  0.00    -0.203 F 
ENDBRANCH  12  15
ENDBRANCH   1   9
BRANCH   6  18
ATOM     18  O   UNL     1       1.644   2.938  -0.959  1.00  0.00    -0.490 OA
BRANCH  18  19
ATOM     19  C   UNL     1       2.872   3.314  -1.529  1.00  0.00     0.119 A 
ATOM     20  C   UNL     1       3.763   2.386  -2.104  1.00  0.00     0.048 A 
ATOM     21  C   UNL     1       3.214   4.673  -1.522  1.00  0.00     0.048 A 
ATOM     22  C   UNL     1       4.971   2.820  -2.659  1.00  0.00     0.024 A 
ATOM     23  C   UNL     1       4.422   5.104  -2.077  1.00  0.00     0.024 A 
ATOM     24  C   UNL     1       5.301   4.178  -2.647  1.00  0.00     0.041 A 
ATOM     25  Cl  UNL     1       6.816   4.719  -3.348  1.00  0.00    -0.084 Cl
ENDBRANCH  18  19
ENDBRANCH   6  18
TORSDOF 4
