REMARK SMILES Cc1ccccc1C(=O)Nc1nc(-c2ccccc2OC(F)F)cs1
REMARK SMILES IDX 14 1 15 2 16 3 17 4 18 5 19 6 13 7 11 8 12 9 25 10 24 11
REMARK SMILES IDX 10 12 8 13 9 14 7 16 2 17 3 18 4 19 6 20 5 21 1 22 20 23
REMARK SMILES IDX 21 24 22 25 23 26
REMARK H PARENT 10 15
ROOT
ATOM      1  C   UNL     1       2.128   1.893  -2.278  1.00  0.00     0.043 A 
ATOM      2  C   UNL     1       2.025   2.675  -3.446  1.00  0.00     0.014 A 
ATOM      3  C   UNL     1       2.977   2.570  -4.460  1.00  0.00     0.001 A 
ATOM      4  C   UNL     1       4.045   1.686  -4.327  1.00  0.00     0.004 A 
ATOM      5  C   UNL     1       4.167   0.902  -3.180  1.00  0.00     0.047 A 
ATOM      6  C   UNL     1       3.215   0.996  -2.143  1.00  0.00     0.135 A 
ENDROOT
BRANCH   1   7
ATOM      7  C   UNL     1       1.095   2.009  -1.217  1.00  0.00     0.087 A 
ATOM      8  C   UNL     1      -0.179   1.281   0.492  1.00  0.00     0.190 A 
ATOM      9  N   UNL     1       0.783   0.964  -0.399  1.00  0.00    -0.220 NA
ATOM     10  S   UNL     1      -0.702   2.869   0.294  1.00  0.00    -0.105 S 
ATOM     11  C   UNL     1       0.358   3.172  -0.975  1.00  0.00     0.097 A 
BRANCH   8  12
ATOM     12  N   UNL     1      -0.701   0.331   1.431  1.00  0.00    -0.298 N 
ATOM     13  C   UNL     1      -1.614   0.657   2.490  1.00  0.00     0.257 C 
ATOM     14  O   UNL     1      -1.713   1.845   2.902  1.00  0.00    -0.269 OA
ATOM     15  H   UNL     1      -0.378  -0.659   1.345  1.00  0.00     0.172 HD
BRANCH  13  16
ATOM     16  C   UNL     1      -2.388  -0.407   3.167  1.00  0.00     0.043 A 
ATOM     17  C   UNL     1      -3.087  -1.413   2.448  1.00  0.00    -0.038 A 
ATOM     18  C   UNL     1      -3.758  -2.424   3.158  1.00  0.00     0.004 A 
ATOM     19  C   UNL     1      -3.778  -2.420   4.554  1.00  0.00     0.000 A 
ATOM     20  C   UNL     1      -2.438  -0.409   4.572  1.00  0.00     0.014 A 
ATOM     21  C   UNL     1      -3.126  -1.410   5.259  1.00  0.00     0.001 A 
ATOM     22  C   UNL     1      -3.138  -1.436   0.942  1.00  0.00     0.045 C 
ENDBRANCH  13  16
ENDBRANCH   8  12
ENDBRANCH   1   7
BRANCH   6  23
ATOM     23  O   UNL     1       3.332   0.232  -0.969  1.00  0.00    -0.434 OA
BRANCH  23  24
ATOM     24  C   UNL     1       4.353  -0.729  -0.714  1.00  0.00     0.542 C 
ATOM     25  F   UNL     1       4.198  -1.221   0.568  1.00  0.00    -0.167 F 
ATOM     26  F   UNL     1       4.251  -1.776  -1.612  1.00  0.00    -0.167 F 
ENDBRANCH  23  24
ENDBRANCH   6  23
TORSDOF 5
