REMARK SMILES CCc1noc(-c2ccc(C)c(NCc3ccc(C(=O)N4CCCC4)cc3)c2)n1
REMARK SMILES IDX 7 1 8 2 9 3 10 4 11 5 12 6 28 7 6 8 3 9 4 10 29 11 5 12 2 13
REMARK SMILES IDX 1 14 13 15 14 17 15 18 16 19 27 20 17 21 26 22 18 23 19 24
REMARK SMILES IDX 20 25 21 26 22 27 25 28 23 29 24 30
REMARK H PARENT 13 16
ROOT
ATOM      1  C   UNL     1       0.247   2.367   2.071  1.00  0.00     0.042 A 
ATOM      2  C   UNL     1       0.683   3.509   1.390  1.00  0.00     0.014 A 
ATOM      3  C   UNL     1       2.003   3.608   0.954  1.00  0.00     0.006 A 
ATOM      4  C   UNL     1       2.914   2.563   1.178  1.00  0.00    -0.028 A 
ATOM      5  C   UNL     1       4.322   2.696   0.662  1.00  0.00     0.046 C 
ATOM      6  C   UNL     1       2.487   1.400   1.865  1.00  0.00     0.038 A 
ATOM      7  C   UNL     1       1.155   1.327   2.318  1.00  0.00     0.039 A 
ENDROOT
BRANCH   1   8
ATOM      8  C   UNL     1      -1.158   2.257   2.511  1.00  0.00     0.257 A 
ATOM      9  C   UNL     1      -2.954   1.569   3.320  1.00  0.00     0.172 A 
ATOM     10  N   UNL     1      -3.205   2.787   2.803  1.00  0.00    -0.062 NA
ATOM     11  N   UNL     1      -1.673   1.186   3.149  1.00  0.00    -0.192 NA
ATOM     12  O   UNL     1      -2.067   3.181   2.317  1.00  0.00    -0.334 OA
BRANCH   9  13
ATOM     13  C   UNL     1      -4.003   0.698   3.937  1.00  0.00     0.078 C 
ATOM     14  C   UNL     1      -4.637  -0.205   2.884  1.00  0.00     0.012 C 
ENDBRANCH   9  13
ENDBRANCH   1   8
BRANCH   6  15
ATOM     15  N   UNL     1       3.396   0.298   2.084  1.00  0.00    -0.381 N 
ATOM     16  H   UNL     1       4.426   0.453   2.000  1.00  0.00     0.160 HD
BRANCH  15  17
ATOM     17  C   UNL     1       2.965  -1.083   2.319  1.00  0.00     0.148 C 
BRANCH  17  18
ATOM     18  C   UNL     1       2.091  -1.569   1.191  1.00  0.00    -0.029 A 
ATOM     19  C   UNL     1       2.554  -1.516  -0.133  1.00  0.00     0.006 A 
ATOM     20  C   UNL     1       0.803  -2.067   1.451  1.00  0.00     0.006 A 
ATOM     21  C   UNL     1       1.726  -1.917  -1.185  1.00  0.00     0.014 A 
ATOM     22  C   UNL     1      -0.022  -2.471   0.398  1.00  0.00     0.014 A 
ATOM     23  C   UNL     1       0.425  -2.376  -0.929  1.00  0.00     0.040 A 
BRANCH  23  24
ATOM     24  C   UNL     1      -0.462  -2.783  -2.036  1.00  0.00     0.253 C 
ATOM     25  O   UNL     1      -1.102  -3.866  -1.938  1.00  0.00    -0.269 OA
ATOM     26  N   UNL     1      -0.633  -1.959  -3.204  1.00  0.00    -0.339 N 
ATOM     27  C   UNL     1      -1.336  -2.420  -4.389  1.00  0.00     0.120 C 
ATOM     28  C   UNL     1      -0.360  -0.528  -3.239  1.00  0.00     0.120 C 
ATOM     29  C   UNL     1      -1.367  -1.228  -5.339  1.00  0.00     0.023 C 
ATOM     30  C   UNL     1      -1.079  -0.002  -4.475  1.00  0.00     0.023 C 
ENDBRANCH  23  24
ENDBRANCH  17  18
ENDBRANCH  15  17
ENDBRANCH   6  15
TORSDOF 6
