REMARK SMILES CCOC(=O)c1cc(S(=O)(=O)Nc2ccc(F)cc2CS(C)(=O)=O)cn1C
REMARK SMILES IDX 9 1 10 2 11 3 8 4 6 5 7 6 26 7 25 8 27 9 4 10 5 11 3 12 2 13
REMARK SMILES IDX 1 14 12 15 13 17 14 18 19 19 15 20 18 21 16 22 17 23 20 24
REMARK SMILES IDX 21 25 23 26 24 27 22 28
REMARK H PARENT 12 16
ROOT
ATOM      1  S   UNL     1       2.083  -1.735  -1.055  1.00  0.00     0.263 S 
ATOM      2  O   UNL     1       3.583  -1.666  -1.110  1.00  0.00    -0.201 OA
ATOM      3  O   UNL     1       1.598  -2.774  -2.026  1.00  0.00    -0.201 OA
ENDROOT
BRANCH   1   4
ATOM      4  C   UNL     1       1.387  -0.185  -1.491  1.00  0.00     0.106 A 
ATOM      5  C   UNL     1      -0.002   1.513  -1.712  1.00  0.00     0.128 A 
ATOM      6  C   UNL     1       0.085   0.206  -1.264  1.00  0.00     0.057 A 
ATOM      7  N   UNL     1       1.199   1.916  -2.198  1.00  0.00    -0.344 N 
ATOM      8  C   UNL     1       2.051   0.880  -2.061  1.00  0.00     0.108 A 
ATOM      9  C   UNL     1       1.548   3.222  -2.753  1.00  0.00     0.150 C 
BRANCH   5  10
ATOM     10  C   UNL     1      -1.230   2.330  -1.641  1.00  0.00     0.354 C 
ATOM     11  O   UNL     1      -1.236   3.515  -2.070  1.00  0.00    -0.244 OA
BRANCH  10  12
ATOM     12  O   UNL     1      -2.387   1.774  -1.083  1.00  0.00    -0.461 OA
BRANCH  12  13
ATOM     13  C   UNL     1      -3.636   2.460  -1.015  1.00  0.00     0.230 C 
ATOM     14  C   UNL     1      -4.314   2.478  -2.380  1.00  0.00     0.049 C 
ENDBRANCH  12  13
ENDBRANCH  10  12
ENDBRANCH   5  10
ENDBRANCH   1   4
BRANCH   1  15
ATOM     15  N   UNL     1       1.585  -2.164   0.549  1.00  0.00    -0.279 N 
ATOM     16  H   UNL     1       1.296  -3.154   0.706  1.00  0.00     0.180 HD
BRANCH  15  17
ATOM     17  C   UNL     1       1.425  -1.184   1.590  1.00  0.00     0.053 A 
ATOM     18  C   UNL     1       2.341  -0.121   1.691  1.00  0.00     0.030 A 
ATOM     19  C   UNL     1       0.359  -1.269   2.523  1.00  0.00    -0.006 A 
ATOM     20  C   UNL     1       2.209   0.842   2.692  1.00  0.00     0.041 A 
ATOM     21  C   UNL     1       0.247  -0.292   3.529  1.00  0.00     0.046 A 
ATOM     22  C   UNL     1       1.165   0.757   3.610  1.00  0.00     0.123 A 
ATOM     23  F   UNL     1       1.040   1.693   4.583  1.00  0.00    -0.207 F 
BRANCH  19  24
ATOM     24  C   UNL     1      -0.677  -2.367   2.472  1.00  0.00     0.174 C 
BRANCH  24  25
ATOM     25  S   UNL     1      -0.303  -3.658   3.651  1.00  0.00     0.151 S 
ATOM     26  O   UNL     1      -0.326  -3.090   5.043  1.00  0.00    -0.229 OA
ATOM     27  O   UNL     1      -1.347  -4.733   3.544  1.00  0.00    -0.229 OA
ATOM     28  C   UNL     1       1.297  -4.377   3.344  1.00  0.00     0.158 C 
ENDBRANCH  24  25
ENDBRANCH  19  24
ENDBRANCH  15  17
ENDBRANCH   1  15
TORSDOF 8
