REMARK SMILES Nc1ccc(C(=O)Nc2ccc(Cl)cc2OCC(F)(F)F)cn1
REMARK SMILES IDX 9 1 10 2 11 3 12 4 13 5 14 6 15 7 8 8 6 9 7 10 5 12 2 13
REMARK SMILES IDX 3 14 23 15 4 16 22 17 1 18 16 21 17 22 18 23 19 24 20 25
REMARK SMILES IDX 21 26
REMARK H PARENT 8 11 1 19 1 20
ROOT
ATOM      1  C   UNL     1      -0.739   1.459  -0.450  1.00  0.00     0.084 A 
ATOM      2  C   UNL     1      -2.093   1.688  -0.752  1.00  0.00     0.031 A 
ATOM      3  C   UNL     1      -2.492   2.887  -1.345  1.00  0.00     0.023 A 
ATOM      4  C   UNL     1      -1.545   3.865  -1.652  1.00  0.00     0.044 A 
ATOM      5  Cl  UNL     1      -2.052   5.370  -2.397  1.00  0.00    -0.084 Cl
ATOM      6  C   UNL     1      -0.193   3.642  -1.375  1.00  0.00     0.069 A 
ATOM      7  C   UNL     1       0.224   2.433  -0.780  1.00  0.00     0.144 A 
ENDROOT
BRANCH   1   8
ATOM      8  N   UNL     1      -0.318   0.212   0.131  1.00  0.00    -0.319 N 
ATOM      9  C   UNL     1      -1.024  -0.445   1.201  1.00  0.00     0.257 C 
ATOM     10  O   UNL     1      -2.041   0.100   1.711  1.00  0.00    -0.269 OA
ATOM     11  H   UNL     1       0.568  -0.205  -0.229  1.00  0.00     0.170 HD
BRANCH   9  12
ATOM     12  C   UNL     1      -0.574  -1.757   1.727  1.00  0.00     0.058 A 
ATOM     13  C   UNL     1       0.265  -4.221   2.735  1.00  0.00     0.123 A 
ATOM     14  C   UNL     1      -1.087  -3.872   2.806  1.00  0.00     0.047 A 
ATOM     15  N   UNL     1       1.157  -3.353   2.188  1.00  0.00    -0.239 NA
ATOM     16  C   UNL     1      -1.503  -2.637   2.306  1.00  0.00     0.019 A 
ATOM     17  C   UNL     1       0.777  -2.146   1.690  1.00  0.00     0.127 A 
BRANCH  13  18
ATOM     18  N   UNL     1       0.716  -5.477   3.240  1.00  0.00    -0.384 N 
ATOM     19  H   UNL     1       0.047  -6.157   3.667  1.00  0.00     0.158 HD
ATOM     20  H   UNL     1       1.727  -5.732   3.188  1.00  0.00     0.158 HD
ENDBRANCH  13  18
ENDBRANCH   9  12
ENDBRANCH   1   8
BRANCH   7  21
ATOM     21  O   UNL     1       1.572   2.167  -0.479  1.00  0.00    -0.482 OA
BRANCH  21  22
ATOM     22  C   UNL     1       2.698   2.952  -0.878  1.00  0.00     0.344 C 
BRANCH  22  23
ATOM     23  C   UNL     1       3.092   2.652  -2.324  1.00  0.00     0.422 C 
ATOM     24  F   UNL     1       4.241   3.353  -2.641  1.00  0.00    -0.167 F 
ATOM     25  F   UNL     1       3.336   1.299  -2.471  1.00  0.00    -0.167 F 
ATOM     26  F   UNL     1       2.086   3.028  -3.193  1.00  0.00    -0.167 F 
ENDBRANCH  22  23
ENDBRANCH  21  22
ENDBRANCH   7  21
TORSDOF 6
