REMARK SMILES O=C(Nc1nnc2ccccn12)c1cccc(Nc2ccccc2)c1
REMARK SMILES IDX 13 1 14 2 15 3 16 4 17 5 25 6 2 7 1 8 3 9 4 11 5 12 12 13
REMARK SMILES IDX 6 14 11 15 7 16 10 17 8 18 9 19 18 20 19 22 20 23 24 24
REMARK SMILES IDX 21 25 23 26 22 27
REMARK H PARENT 3 10 18 21
ROOT
ATOM      1  C   UNL     1      -1.966   0.149  -1.316  1.00  0.00     0.042 A 
ATOM      2  C   UNL     1      -3.236  -0.136  -1.848  1.00  0.00     0.014 A 
ATOM      3  C   UNL     1      -4.294  -0.485  -1.006  1.00  0.00     0.003 A 
ATOM      4  C   UNL     1      -4.100  -0.551   0.375  1.00  0.00     0.026 A 
ATOM      5  C   UNL     1      -2.847  -0.260   0.929  1.00  0.00     0.039 A 
ATOM      6  C   UNL     1      -1.776   0.065   0.076  1.00  0.00     0.039 A 
ENDROOT
BRANCH   1   7
ATOM      7  C   UNL     1      -0.842   0.504  -2.215  1.00  0.00     0.258 C 
ATOM      8  O   UNL     1      -0.925   0.246  -3.447  1.00  0.00    -0.269 OA
ATOM      9  N   UNL     1       0.321   1.175  -1.708  1.00  0.00    -0.290 N 
ATOM     10  H   UNL     1       0.212   1.806  -0.882  1.00  0.00     0.173 HD
BRANCH   9  11
ATOM     11  C   UNL     1       1.556   1.241  -2.431  1.00  0.00     0.235 A 
ATOM     12  N   UNL     1       2.314   2.357  -2.506  1.00  0.00    -0.111 NA
ATOM     13  N   UNL     1       2.142   0.213  -3.071  1.00  0.00    -0.269 N 
ATOM     14  N   UNL     1       3.393   2.051  -3.221  1.00  0.00    -0.128 NA
ATOM     15  C   UNL     1       1.827  -1.103  -3.197  1.00  0.00     0.096 A 
ATOM     16  C   UNL     1       3.271   0.752  -3.554  1.00  0.00     0.162 A 
ATOM     17  C   UNL     1       2.709  -1.925  -3.916  1.00  0.00     0.019 A 
ATOM     18  C   UNL     1       4.186  -0.013  -4.272  1.00  0.00     0.050 A 
ATOM     19  C   UNL     1       3.888  -1.373  -4.458  1.00  0.00     0.005 A 
ENDBRANCH   9  11
ENDBRANCH   1   7
BRANCH   5  20
ATOM     20  N   UNL     1      -2.661  -0.366   2.352  1.00  0.00    -0.356 N 
ATOM     21  H   UNL     1      -3.245  -1.062   2.869  1.00  0.00     0.167 HD
BRANCH  20  22
ATOM     22  C   UNL     1      -1.726   0.421   3.110  1.00  0.00     0.038 A 
ATOM     23  C   UNL     1      -1.409   1.741   2.738  1.00  0.00     0.026 A 
ATOM     24  C   UNL     1      -1.163  -0.114   4.279  1.00  0.00     0.026 A 
ATOM     25  C   UNL     1      -0.514   2.494   3.505  1.00  0.00     0.002 A 
ATOM     26  C   UNL     1      -0.269   0.642   5.044  1.00  0.00     0.002 A 
ATOM     27  C   UNL     1       0.058   1.943   4.655  1.00  0.00     0.000 A 
ENDBRANCH  20  22
ENDBRANCH   5  20
TORSDOF 4
