REMARK SMILES CC[C@@](C)(O)Cc1cn(Cc2cc(C(F)(F)F)ncc2F)nn1
REMARK SMILES IDX 7 1 8 2 9 3 22 4 23 5 6 6 3 7 4 8 2 9 1 10 5 11 10 13 11 14
REMARK SMILES IDX 12 15 20 16 13 17 19 18 18 19 21 20 14 21 15 22 16 23 17 24
REMARK H PARENT 5 12
ROOT
ATOM      1  C   UNL     1      -1.395  -1.219   1.555  1.00  0.00     0.086 A 
ATOM      2  C   UNL     1      -0.464  -2.076   1.011  1.00  0.00     0.135 A 
ATOM      3  N   UNL     1      -1.088  -2.706   0.002  1.00  0.00    -0.248 N 
ATOM      4  N   UNL     1      -2.328  -2.249  -0.079  1.00  0.00    -0.067 NA
ATOM      5  N   UNL     1      -2.546  -1.343   0.864  1.00  0.00    -0.135 NA
ENDROOT
BRANCH   1   6
ATOM      6  C   UNL     1      -1.168  -0.239   2.671  1.00  0.00     0.094 C 
BRANCH   6   7
ATOM      7  C   UNL     1      -0.643   1.147   2.202  1.00  0.00     0.067 C 
ATOM      8  C   UNL     1       0.761   0.992   1.577  1.00  0.00     0.042 C 
BRANCH   7   9
ATOM      9  C   UNL     1      -1.593   1.819   1.166  1.00  0.00     0.032 C 
ATOM     10  C   UNL     1      -2.995   2.108   1.709  1.00  0.00     0.007 C 
ENDBRANCH   7   9
BRANCH   7  11
ATOM     11  O   UNL     1      -0.538   1.960   3.349  1.00  0.00    -0.390 OA
ATOM     12  H   UNL     1      -0.214   2.856   3.066  1.00  0.00     0.211 HD
ENDBRANCH   7  11
ENDBRANCH   6   7
ENDBRANCH   1   6
BRANCH   3  13
ATOM     13  C   UNL     1      -0.479  -3.615  -0.961  1.00  0.00     0.184 C 
BRANCH  13  14
ATOM     14  C   UNL     1       0.167  -2.822  -2.065  1.00  0.00     0.013 A 
ATOM     15  C   UNL     1       1.473  -2.337  -1.904  1.00  0.00     0.042 A 
ATOM     16  C   UNL     1      -0.550  -2.483  -3.223  1.00  0.00     0.146 A 
ATOM     17  C   UNL     1       2.050  -1.547  -2.908  1.00  0.00     0.144 A 
ATOM     18  C   UNL     1       0.060  -1.695  -4.202  1.00  0.00     0.151 A 
ATOM     19  N   UNL     1       1.331  -1.248  -4.025  1.00  0.00    -0.249 NA
ATOM     20  F   UNL     1      -1.829  -2.901  -3.401  1.00  0.00    -0.205 F 
BRANCH  17  21
ATOM     21  C   UNL     1       3.442  -1.010  -2.743  1.00  0.00     0.433 C 
ATOM     22  F   UNL     1       4.324  -2.056  -2.539  1.00  0.00    -0.165 F 
ATOM     23  F   UNL     1       3.484  -0.160  -1.654  1.00  0.00    -0.165 F 
ATOM     24  F   UNL     1       3.831  -0.312  -3.873  1.00  0.00    -0.165 F 
ENDBRANCH  17  21
ENDBRANCH  13  14
ENDBRANCH   3  13
TORSDOF 7
