REMARK SMILES O=C1N[C@@]2(CCc3ccccc32)C(=O)N1Cc1ncc(Cl)cc1Cl
REMARK SMILES IDX 16 1 15 2 1 3 2 4 3 5 4 6 13 7 5 8 12 9 14 10 6 11 11 12
REMARK SMILES IDX 7 13 10 14 8 15 9 16 17 18 18 19 23 20 19 21 22 22 20 23
REMARK SMILES IDX 24 24 21 25
REMARK H PARENT 3 17
ROOT
ATOM      1  C   UNL     1      -1.102   1.298   2.817  1.00  0.00     0.188 C 
ENDROOT
BRANCH   1   2
ATOM      2  N   UNL     1      -1.557   1.324   1.428  1.00  0.00    -0.256 N 
ATOM      3  O   UNL     1      -3.438  -0.103   1.536  1.00  0.00    -0.248 OA
ATOM      4  C   UNL     1      -2.530   0.455   0.865  1.00  0.00     0.325 C 
ATOM      5  N   UNL     1      -2.374   0.265  -0.535  1.00  0.00    -0.319 N 
ATOM      6  C   UNL     1      -1.189   1.008  -0.955  1.00  0.00     0.147 C 
ATOM      7  C   UNL     1      -0.742   1.679   0.314  1.00  0.00     0.261 C 
ATOM      8  C   UNL     1      -1.493   1.991  -2.111  1.00  0.00     0.048 C 
ATOM      9  C   UNL     1      -0.147   0.099  -1.496  1.00  0.00    -0.010 A 
ATOM     10  O   UNL     1       0.264   2.433   0.407  1.00  0.00    -0.271 OA
ATOM     11  C   UNL     1      -0.530   1.637  -3.263  1.00  0.00     0.039 C 
ATOM     12  C   UNL     1       0.451  -0.990  -0.849  1.00  0.00     0.007 A 
ATOM     13  C   UNL     1       0.216   0.452  -2.772  1.00  0.00    -0.042 A 
ATOM     14  C   UNL     1       1.437  -1.720  -1.528  1.00  0.00     0.000 A 
ATOM     15  C   UNL     1       1.196  -0.263  -3.465  1.00  0.00     0.004 A 
ATOM     16  C   UNL     1       1.809  -1.357  -2.835  1.00  0.00     0.000 A 
ATOM     17  H   UNL     1      -2.952  -0.366  -1.133  1.00  0.00     0.166 HD
ENDBRANCH   1   2
BRANCH   1  18
ATOM     18  C   UNL     1      -0.098   0.190   3.009  1.00  0.00     0.079 A 
ATOM     19  N   UNL     1       1.181   0.403   2.593  1.00  0.00    -0.256 NA
ATOM     20  C   UNL     1      -0.454  -1.077   3.521  1.00  0.00     0.065 A 
ATOM     21  C   UNL     1       2.138  -0.559   2.659  1.00  0.00     0.132 A 
ATOM     22  C   UNL     1       0.520  -2.078   3.591  1.00  0.00     0.044 A 
ATOM     23  C   UNL     1       1.821  -1.823   3.157  1.00  0.00     0.060 A 
ATOM     24  Cl  UNL     1      -2.079  -1.449   4.083  1.00  0.00    -0.082 Cl
ATOM     25  Cl  UNL     1       3.044  -3.078   3.233  1.00  0.00    -0.083 Cl
ENDBRANCH   1  18
TORSDOF 2
