REMARK SMILES O=C(CSc1cccc(Br)c1)N1CCc2c(ncn2-c2ccc(F)cc2)C1
REMARK SMILES IDX 1 1 2 2 3 3 4 4 5 5 6 6 11 7 7 8 9 9 8 10 10 11 12 12 13 13
REMARK SMILES IDX 27 14 14 15 16 16 15 17 17 18 19 19 18 20 20 21 21 22 26 23
REMARK SMILES IDX 22 24 25 25 23 26 24 27
REMARK H PARENT
ROOT
ATOM      1  O   UNL     1       0.631  -2.743   1.777  1.00  0.00    -0.274 OA
ATOM      2  C   UNL     1       0.229  -1.574   1.524  1.00  0.00     0.233 C 
ENDROOT
BRANCH   2   3
ATOM      3  C   UNL     1      -0.484  -0.810   2.603  1.00  0.00     0.175 C 
BRANCH   3   4
ATOM      4  S   UNL     1       0.656  -0.520   3.995  1.00  0.00    -0.116 SA
BRANCH   4   5
ATOM      5  C   UNL     1      -0.548   0.411   4.943  1.00  0.00     0.009 A 
ATOM      6  C   UNL     1      -1.391  -0.246   5.847  1.00  0.00     0.015 A 
ATOM      7  C   UNL     1      -0.646   1.799   4.779  1.00  0.00     0.030 A 
ATOM      8  C   UNL     1      -2.334   0.481   6.580  1.00  0.00     0.002 A 
ATOM      9  C   UNL     1      -1.589   2.527   5.514  1.00  0.00     0.019 A 
ATOM     10  C   UNL     1      -2.433   1.867   6.415  1.00  0.00     0.016 A 
ATOM     11  Br  UNL     1      -1.722   4.418   5.288  1.00  0.00    -0.051 Br
ENDBRANCH   4   5
ENDBRANCH   3   4
ENDBRANCH   2   3
BRANCH   2  12
ATOM     12  N   UNL     1       0.504  -0.995   0.233  1.00  0.00    -0.336 N 
ATOM     13  C   UNL     1      -0.433  -0.017  -0.362  1.00  0.00     0.126 C 
ATOM     14  C   UNL     1       1.850  -1.208  -0.337  1.00  0.00     0.177 C 
ATOM     15  C   UNL     1      -0.517  -0.164  -1.889  1.00  0.00     0.078 C 
ATOM     16  C   UNL     1       1.928  -0.736  -1.753  1.00  0.00     0.081 A 
ATOM     17  C   UNL     1       0.861  -0.265  -2.460  1.00  0.00     0.049 A 
ATOM     18  N   UNL     1       3.042  -0.695  -2.510  1.00  0.00    -0.239 NA
ATOM     19  N   UNL     1       1.280   0.070  -3.695  1.00  0.00    -0.303 N 
ATOM     20  C   UNL     1       2.608  -0.191  -3.689  1.00  0.00     0.205 A 
BRANCH  19  21
ATOM     21  C   UNL     1       0.520   0.612  -4.791  1.00  0.00     0.047 A 
ATOM     22  C   UNL     1      -0.749   0.098  -5.110  1.00  0.00     0.029 A 
ATOM     23  C   UNL     1       1.057   1.645  -5.578  1.00  0.00     0.029 A 
ATOM     24  C   UNL     1      -1.474   0.623  -6.183  1.00  0.00     0.041 A 
ATOM     25  C   UNL     1       0.328   2.170  -6.649  1.00  0.00     0.041 A 
ATOM     26  C   UNL     1      -0.938   1.661  -6.951  1.00  0.00     0.123 A 
ATOM     27  F   UNL     1      -1.643   2.167  -7.993  1.00  0.00    -0.207 F 
ENDBRANCH  19  21
ENDBRANCH   2  12
TORSDOF 5
