REMARK SMILES Cc1nc(N2CC[C@H](CO)C2)c2cnn(-c3ccccc3)c2n1
REMARK SMILES IDX 5 1 6 2 7 3 8 4 11 5 4 6 2 7 3 8 23 9 22 10 12 11 15 12
REMARK SMILES IDX 13 13 14 14 1 15 16 16 17 17 21 18 18 19 20 20 19 21 9 22
REMARK SMILES IDX 10 23
REMARK H PARENT 10 24
ROOT
ATOM      1  N   UNL     1      -0.671   1.255   1.825  1.00  0.00    -0.356 N 
ATOM      2  C   UNL     1      -0.022   2.554   1.882  1.00  0.00     0.118 C 
ATOM      3  C   UNL     1      -0.422   3.159   3.221  1.00  0.00     0.029 C 
ATOM      4  C   UNL     1      -0.891   1.982   4.087  1.00  0.00     0.036 C 
ATOM      5  C   UNL     1      -1.314   0.905   3.083  1.00  0.00     0.124 C 
ENDROOT
BRANCH   1   6
ATOM      6  C   UNL     1      -0.781   0.417   0.655  1.00  0.00     0.143 A 
ATOM      7  C   UNL     1      -1.795  -1.483  -0.401  1.00  0.00     0.130 A 
ATOM      8  N   UNL     1      -1.637  -0.650   0.674  1.00  0.00    -0.215 NA
ATOM      9  N   UNL     1      -1.097  -1.258  -1.552  1.00  0.00    -0.213 NA
ATOM     10  C   UNL     1      -0.227  -0.221  -1.586  1.00  0.00     0.168 A 
ATOM     11  C   UNL     1      -0.056   0.625  -0.530  1.00  0.00     0.082 A 
ATOM     12  N   UNL     1       0.537   0.166  -2.624  1.00  0.00    -0.215 N 
ATOM     13  C   UNL     1       0.867   1.557  -0.978  1.00  0.00     0.150 A 
ATOM     14  N   UNL     1       1.202   1.256  -2.256  1.00  0.00    -0.174 NA
ATOM     15  C   UNL     1      -2.780  -2.602  -0.336  1.00  0.00     0.090 C 
BRANCH  12  16
ATOM     16  C   UNL     1       0.641  -0.429  -3.931  1.00  0.00     0.067 A 
ATOM     17  C   UNL     1       0.488  -1.817  -4.117  1.00  0.00     0.028 A 
ATOM     18  C   UNL     1       0.936   0.377  -5.045  1.00  0.00     0.028 A 
ATOM     19  C   UNL     1       0.603  -2.376  -5.393  1.00  0.00     0.002 A 
ATOM     20  C   UNL     1       1.048  -0.187  -6.319  1.00  0.00     0.002 A 
ATOM     21  C   UNL     1       0.879  -1.562  -6.494  1.00  0.00     0.000 A 
ENDBRANCH  12  16
ENDBRANCH   1   6
BRANCH   4  22
ATOM     22  C   UNL     1       0.231   1.474   5.013  1.00  0.00     0.161 C 
BRANCH  22  23
ATOM     23  O   UNL     1       0.590   2.458   5.946  1.00  0.00    -0.396 OA
ATOM     24  H   UNL     1      -0.140   2.493   6.618  1.00  0.00     0.210 HD
ENDBRANCH  22  23
ENDBRANCH   4  22
TORSDOF 4
