REMARK SMILES O=C(NC1CCOCC1)c1cncc(-c2ccc3c(c2)CCO3)c1
REMARK SMILES IDX 10 1 11 2 12 3 13 4 14 5 24 6 2 7 1 8 3 9 4 11 5 12 9 13
REMARK SMILES IDX 6 14 8 15 7 16 15 17 16 18 20 19 17 20 19 21 18 22 21 23
REMARK SMILES IDX 23 24 22 25
REMARK H PARENT 3 10
ROOT
ATOM      1  C   UNL     1      -1.395  -0.316  -1.567  1.00  0.00     0.058 A 
ATOM      2  C   UNL     1      -1.856  -0.314  -2.892  1.00  0.00     0.124 A 
ATOM      3  N   UNL     1      -1.137   0.298  -3.868  1.00  0.00    -0.263 NA
ATOM      4  C   UNL     1       0.034   0.934  -3.607  1.00  0.00     0.119 A 
ATOM      5  C   UNL     1       0.540   0.978  -2.298  1.00  0.00     0.001 A 
ATOM      6  C   UNL     1      -0.192   0.348  -1.278  1.00  0.00     0.025 A 
ENDROOT
BRANCH   1   7
ATOM      7  C   UNL     1      -2.184  -0.980  -0.501  1.00  0.00     0.253 C 
ATOM      8  O   UNL     1      -3.421  -1.163  -0.671  1.00  0.00    -0.269 OA
ATOM      9  N   UNL     1      -1.558  -1.436   0.710  1.00  0.00    -0.349 N 
ATOM     10  H   UNL     1      -0.516  -1.509   0.743  1.00  0.00     0.164 HD
BRANCH   9  11
ATOM     11  C   UNL     1      -2.340  -1.894   1.863  1.00  0.00     0.086 C 
ATOM     12  C   UNL     1      -3.067  -0.707   2.527  1.00  0.00     0.053 C 
ATOM     13  C   UNL     1      -1.438  -2.598   2.889  1.00  0.00     0.053 C 
ATOM     14  C   UNL     1      -3.418  -1.006   3.996  1.00  0.00     0.162 C 
ATOM     15  C   UNL     1      -2.244  -3.006   4.145  1.00  0.00     0.162 C 
ATOM     16  O   UNL     1      -3.526  -2.399   4.214  1.00  0.00    -0.381 OA
ENDBRANCH   9  11
ENDBRANCH   1   7
BRANCH   5  17
ATOM     17  C   UNL     1       1.816   1.677  -1.998  1.00  0.00    -0.016 A 
ATOM     18  C   UNL     1       2.131   2.905  -2.634  1.00  0.00     0.012 A 
ATOM     19  C   UNL     1       2.732   1.126  -1.072  1.00  0.00     0.016 A 
ATOM     20  C   UNL     1       3.337   3.568  -2.351  1.00  0.00     0.047 A 
ATOM     21  C   UNL     1       3.920   1.811  -0.814  1.00  0.00    -0.002 A 
ATOM     22  C   UNL     1       4.209   2.990  -1.434  1.00  0.00     0.122 A 
ATOM     23  C   UNL     1       5.028   1.436   0.102  1.00  0.00     0.081 C 
ATOM     24  O   UNL     1       5.429   3.485  -1.032  1.00  0.00    -0.493 OA
ATOM     25  C   UNL     1       6.027   2.605  -0.080  1.00  0.00     0.234 C 
ENDBRANCH   5  17
TORSDOF 3
