REMARK SMILES COC(=O)[C@H]1Cc2ccccc2CN1C(=O)[C@@H]1CC12CCOCC2
REMARK SMILES IDX 5 1 6 2 7 3 8 4 9 5 10 6 11 7 12 8 13 9 14 10 3 11 4 12 2 13
REMARK SMILES IDX 1 14 15 15 16 16 17 17 18 18 19 19 20 20 24 21 21 22 23 23
REMARK SMILES IDX 22 24
REMARK H PARENT
ROOT
ATOM      1  C   UNL     1      -0.951   2.319   0.424  1.00  0.00     0.199 C 
ATOM      2  C   UNL     1      -1.725   2.259   1.756  1.00  0.00     0.073 C 
ATOM      3  C   UNL     1      -1.684   0.874   2.332  1.00  0.00    -0.040 A 
ATOM      4  C   UNL     1      -2.812   0.304   2.942  1.00  0.00     0.004 A 
ATOM      5  C   UNL     1      -2.739  -0.983   3.482  1.00  0.00     0.000 A 
ATOM      6  C   UNL     1      -1.540  -1.700   3.426  1.00  0.00     0.000 A 
ATOM      7  C   UNL     1      -0.410  -1.130   2.831  1.00  0.00     0.006 A 
ATOM      8  C   UNL     1      -0.481   0.156   2.274  1.00  0.00    -0.025 A 
ATOM      9  C   UNL     1       0.732   0.802   1.660  1.00  0.00     0.156 C 
ATOM     10  N   UNL     1       0.374   1.662   0.512  1.00  0.00    -0.324 N 
ENDROOT
BRANCH   1  11
ATOM     11  C   UNL     1      -1.757   1.688  -0.678  1.00  0.00     0.328 C 
ATOM     12  O   UNL     1      -2.263   2.412  -1.578  1.00  0.00    -0.250 OA
BRANCH  11  13
ATOM     13  O   UNL     1      -1.951   0.303  -0.687  1.00  0.00    -0.467 OA
ATOM     14  C   UNL     1      -2.700  -0.360  -1.697  1.00  0.00     0.282 C 
ENDBRANCH  11  13
ENDBRANCH   1  11
BRANCH  10  15
ATOM     15  C   UNL     1       1.367   1.965  -0.496  1.00  0.00     0.227 C 
ATOM     16  O   UNL     1       1.189   2.937  -1.281  1.00  0.00    -0.275 OA
BRANCH  15  17
ATOM     17  C   UNL     1       2.638   1.161  -0.610  1.00  0.00     0.085 C 
ATOM     18  C   UNL     1       3.208   1.012  -2.022  1.00  0.00     0.022 C 
ATOM     19  C   UNL     1       2.547  -0.185  -1.345  1.00  0.00    -0.013 C 
ATOM     20  C   UNL     1       1.250  -0.655  -2.024  1.00  0.00     0.036 C 
ATOM     21  C   UNL     1       3.514  -1.294  -0.913  1.00  0.00     0.036 C 
ATOM     22  C   UNL     1       0.690  -1.853  -1.250  1.00  0.00     0.160 C 
ATOM     23  C   UNL     1       2.716  -2.432  -0.266  1.00  0.00     0.160 C 
ATOM     24  O   UNL     1       1.667  -2.870  -1.114  1.00  0.00    -0.381 OA
ENDBRANCH  15  17
ENDBRANCH  10  15
TORSDOF 4
