REMARK SMILES O=c1ccc(-c2nnco2)cn1Cc1ncnn1-c1ccccc1
REMARK SMILES IDX 13 1 12 2 1 3 2 4 3 5 4 6 11 7 5 8 6 9 7 10 10 11 8 12 9 13
REMARK SMILES IDX 14 14 15 15 18 16 16 17 17 18 19 19 20 20 24 21 21 22 23 23
REMARK SMILES IDX 22 24
REMARK H PARENT
ROOT
ATOM      1  C   UNL     1       1.686   1.157   0.031  1.00  0.00     0.202 C 
ENDROOT
BRANCH   1   2
ATOM      2  N   UNL     1       0.842   0.551   1.076  1.00  0.00    -0.307 N 
ATOM      3  O   UNL     1       2.663  -0.025   2.341  1.00  0.00    -0.269 OA
ATOM      4  C   UNL     1       1.412  -0.040   2.177  1.00  0.00     0.250 A 
ATOM      5  C   UNL     1       0.611  -0.671   3.132  1.00  0.00     0.072 A 
ATOM      6  C   UNL     1      -0.770  -0.709   2.959  1.00  0.00     0.021 A 
ATOM      7  C   UNL     1      -0.518   0.546   0.918  1.00  0.00     0.103 A 
ATOM      8  C   UNL     1      -1.351  -0.100   1.841  1.00  0.00     0.055 A 
BRANCH   8   9
ATOM      9  C   UNL     1      -2.808  -0.155   1.618  1.00  0.00     0.248 A 
ATOM     10  N   UNL     1      -3.686  -0.753   2.446  1.00  0.00    -0.108 NA
ATOM     11  O   UNL     1      -3.420   0.363   0.579  1.00  0.00    -0.423 OA
ATOM     12  N   UNL     1      -4.880  -0.596   1.896  1.00  0.00    -0.116 NA
ATOM     13  C   UNL     1      -4.690   0.090   0.753  1.00  0.00     0.333 A 
ENDBRANCH   8   9
ENDBRANCH   1   2
BRANCH   1  14
ATOM     14  C   UNL     1       2.405   0.091  -0.751  1.00  0.00     0.152 A 
ATOM     15  N   UNL     1       3.737  -0.102  -0.676  1.00  0.00    -0.218 NA
ATOM     16  N   UNL     1       1.814  -0.872  -1.488  1.00  0.00    -0.216 N 
ATOM     17  C   UNL     1       3.910  -1.223  -1.411  1.00  0.00     0.246 A 
ATOM     18  N   UNL     1       2.751  -1.707  -1.897  1.00  0.00    -0.154 NA
BRANCH  16  19
ATOM     19  C   UNL     1       0.418  -1.049  -1.756  1.00  0.00     0.067 A 
ATOM     20  C   UNL     1      -0.310  -0.052  -2.424  1.00  0.00     0.028 A 
ATOM     21  C   UNL     1      -0.230  -2.223  -1.345  1.00  0.00     0.028 A 
ATOM     22  C   UNL     1      -1.681  -0.217  -2.650  1.00  0.00     0.002 A 
ATOM     23  C   UNL     1      -1.601  -2.383  -1.569  1.00  0.00     0.002 A 
ATOM     24  C   UNL     1      -2.327  -1.379  -2.218  1.00  0.00     0.000 A 
ENDBRANCH  16  19
ENDBRANCH   1  14
TORSDOF 4
