REMARK SMILES O=C1CC[C@@H](c2cccc(NC(=O)c3ccc(Oc4ccccc4)cn3)c2)N1
REMARK SMILES IDX 13 1 12 2 11 3 14 5 15 6 26 7 16 8 25 9 17 10 18 11 19 12
REMARK SMILES IDX 20 13 24 14 21 15 23 16 22 17 10 18 9 19 27 20 8 21 6 22
REMARK SMILES IDX 7 23 5 24 4 25 28 26 3 27 2 28 1 29
REMARK H PARENT 11 4 28 30
ROOT
ATOM      1  O   UNL     1       0.845  -2.764  -0.916  1.00  0.00    -0.267 OA
ATOM      2  C   UNL     1       0.217  -1.902  -0.242  1.00  0.00     0.274 C 
ATOM      3  N   UNL     1       0.273  -0.514  -0.617  1.00  0.00    -0.321 N 
ATOM      4  H   UNL     1       0.024   0.202   0.103  1.00  0.00     0.170 HD
ENDROOT
BRANCH   2   5
ATOM      5  C   UNL     1      -0.535  -2.321   0.962  1.00  0.00     0.128 A 
ATOM      6  C   UNL     1      -0.603  -3.671   1.343  1.00  0.00     0.038 A 
ATOM      7  N   UNL     1      -1.177  -1.386   1.715  1.00  0.00    -0.247 NA
ATOM      8  C   UNL     1      -1.316  -4.028   2.489  1.00  0.00     0.051 A 
ATOM      9  C   UNL     1      -1.874  -1.711   2.837  1.00  0.00     0.159 A 
ATOM     10  C   UNL     1      -1.945  -3.047   3.260  1.00  0.00     0.145 A 
BRANCH  10  11
ATOM     11  O   UNL     1      -2.664  -3.433   4.400  1.00  0.00    -0.456 OA
BRANCH  11  12
ATOM     12  C   UNL     1      -2.833  -2.655   5.555  1.00  0.00     0.127 A 
ATOM     13  C   UNL     1      -3.996  -2.823   6.317  1.00  0.00     0.047 A 
ATOM     14  C   UNL     1      -1.849  -1.749   5.992  1.00  0.00     0.047 A 
ATOM     15  C   UNL     1      -4.191  -2.078   7.484  1.00  0.00     0.004 A 
ATOM     16  C   UNL     1      -2.046  -1.005   7.160  1.00  0.00     0.004 A 
ATOM     17  C   UNL     1      -3.219  -1.166   7.903  1.00  0.00     0.000 A 
ENDBRANCH  11  12
ENDBRANCH  10  11
ENDBRANCH   2   5
BRANCH   3  18
ATOM     18  C   UNL     1       0.780  -0.041  -1.877  1.00  0.00     0.041 A 
ATOM     19  C   UNL     1       0.597  -0.772  -3.064  1.00  0.00     0.026 A 
ATOM     20  C   UNL     1       1.415   1.210  -1.935  1.00  0.00     0.032 A 
ATOM     21  C   UNL     1       1.079  -0.278  -4.278  1.00  0.00     0.003 A 
ATOM     22  C   UNL     1       1.908   1.710  -3.152  1.00  0.00    -0.024 A 
ATOM     23  C   UNL     1       1.734   0.954  -4.324  1.00  0.00     0.006 A 
BRANCH  22  24
ATOM     24  C   UNL     1       2.588   3.061  -3.198  1.00  0.00     0.113 C 
ATOM     25  C   UNL     1       1.764   4.105  -3.997  1.00  0.00     0.040 C 
ATOM     26  N   UNL     1       3.869   2.961  -3.873  1.00  0.00    -0.349 N 
ATOM     27  C   UNL     1       2.628   4.559  -5.184  1.00  0.00     0.102 C 
ATOM     28  C   UNL     1       3.891   3.820  -4.990  1.00  0.00     0.220 C 
ATOM     29  O   UNL     1       4.895   3.933  -5.742  1.00  0.00    -0.275 OA
ATOM     30  H   UNL     1       4.668   2.365  -3.561  1.00  0.00     0.164 HD
ENDBRANCH  22  24
ENDBRANCH   3  18
TORSDOF 5
