REMARK SMILES O=C(NC1CCOCC1)c1cncc(-c2ccc3c(c2)CCO3)c1
REMARK SMILES IDX 10 1 11 2 12 3 13 4 14 5 24 6 2 7 1 8 3 9 4 11 5 12 9 13
REMARK SMILES IDX 6 14 8 15 7 16 15 17 16 18 20 19 17 20 19 21 18 22 21 23
REMARK SMILES IDX 23 24 22 25
REMARK H PARENT 3 10
ROOT
ATOM      1  C   UNL     1      -0.946   1.485   0.354  1.00  0.00     0.058 A 
ATOM      2  C   UNL     1      -1.317   2.838   0.324  1.00  0.00     0.124 A 
ATOM      3  N   UNL     1      -1.550   3.460  -0.860  1.00  0.00    -0.263 NA
ATOM      4  C   UNL     1      -1.445   2.808  -2.047  1.00  0.00     0.119 A 
ATOM      5  C   UNL     1      -1.091   1.450  -2.082  1.00  0.00     0.001 A 
ATOM      6  C   UNL     1      -0.846   0.793  -0.864  1.00  0.00     0.025 A 
ENDROOT
BRANCH   1   7
ATOM      7  C   UNL     1      -0.700   0.802   1.645  1.00  0.00     0.253 C 
ATOM      8  O   UNL     1      -1.210   1.268   2.701  1.00  0.00    -0.269 OA
ATOM      9  N   UNL     1       0.125  -0.373   1.713  1.00  0.00    -0.349 N 
ATOM     10  H   UNL     1       0.775  -0.569   0.919  1.00  0.00     0.164 HD
BRANCH   9  11
ATOM     11  C   UNL     1       0.156  -1.238   2.900  1.00  0.00     0.086 C 
ATOM     12  C   UNL     1      -1.165  -2.014   3.038  1.00  0.00     0.053 C 
ATOM     13  C   UNL     1       1.332  -2.230   2.828  1.00  0.00     0.053 C 
ATOM     14  C   UNL     1      -1.249  -3.123   1.982  1.00  0.00     0.162 C 
ATOM     15  C   UNL     1       1.052  -3.344   1.806  1.00  0.00     0.162 C 
ATOM     16  O   UNL     1      -0.157  -4.016   2.106  1.00  0.00    -0.381 OA
ENDBRANCH   9  11
ENDBRANCH   1   7
BRANCH   5  17
ATOM     17  C   UNL     1      -0.983   0.723  -3.373  1.00  0.00    -0.016 A 
ATOM     18  C   UNL     1      -1.914   0.963  -4.415  1.00  0.00     0.012 A 
ATOM     19  C   UNL     1       0.051  -0.221  -3.577  1.00  0.00     0.016 A 
ATOM     20  C   UNL     1      -1.815   0.275  -5.636  1.00  0.00     0.047 A 
ATOM     21  C   UNL     1       0.120  -0.886  -4.801  1.00  0.00    -0.002 A 
ATOM     22  C   UNL     1      -0.782  -0.644  -5.793  1.00  0.00     0.122 A 
ATOM     23  C   UNL     1       1.104  -1.906  -5.249  1.00  0.00     0.081 C 
ATOM     24  O   UNL     1      -0.522  -1.409  -6.908  1.00  0.00    -0.493 OA
ATOM     25  C   UNL     1       0.624  -2.230  -6.685  1.00  0.00     0.234 C 
ENDBRANCH   5  17
TORSDOF 3
