REMARK SMILES Cc1cc(NC(=O)NC2CCN([C@H](C)c3ccccc3)CC2)nn1-c1ccc(F)cc1F
REMARK SMILES IDX 5 1 6 2 7 3 8 4 4 7 2 8 3 9 24 10 23 11 1 12 25 13 26 14
REMARK SMILES IDX 31 15 27 16 30 17 28 18 32 19 29 20 9 21 10 22 22 23 11 24
REMARK SMILES IDX 21 25 12 26 13 27 14 28 15 29 16 30 20 31 17 32 19 33 18 34
REMARK H PARENT 5 5 8 6
ROOT
ATOM      1  N   UNL     1       1.542   3.057   0.705  1.00  0.00    -0.291 N 
ATOM      2  C   UNL     1       0.947   1.764   0.518  1.00  0.00     0.320 C 
ATOM      3  O   UNL     1       0.047   1.596  -0.353  1.00  0.00    -0.248 OA
ATOM      4  N   UNL     1       1.365   0.664   1.338  1.00  0.00    -0.335 N 
ATOM      5  H   UNL     1       2.222   3.182   1.490  1.00  0.00     0.173 HD
ATOM      6  H   UNL     1       2.052   0.857   2.100  1.00  0.00     0.165 HD
ENDROOT
BRANCH   1   7
ATOM      7  C   UNL     1       1.246   4.196  -0.115  1.00  0.00     0.156 A 
ATOM      8  C   UNL     1       1.153   6.219  -0.906  1.00  0.00     0.043 A 
ATOM      9  C   UNL     1       1.730   5.471   0.102  1.00  0.00     0.072 A 
ATOM     10  N   UNL     1       0.390   5.404  -1.672  1.00  0.00    -0.233 N 
ATOM     11  N   UNL     1       0.429   4.174  -1.188  1.00  0.00    -0.150 NA
ATOM     12  C   UNL     1       1.254   7.707  -1.050  1.00  0.00     0.067 C 
BRANCH  10  13
ATOM     13  C   UNL     1      -0.404   5.773  -2.808  1.00  0.00     0.101 A 
ATOM     14  C   UNL     1      -1.784   5.519  -2.805  1.00  0.00     0.034 A 
ATOM     15  C   UNL     1       0.195   6.341  -3.947  1.00  0.00     0.151 A 
ATOM     16  C   UNL     1      -2.563   5.857  -3.916  1.00  0.00     0.041 A 
ATOM     17  C   UNL     1      -0.588   6.672  -5.058  1.00  0.00     0.080 A 
ATOM     18  C   UNL     1      -1.967   6.435  -5.041  1.00  0.00     0.126 A 
ATOM     19  F   UNL     1       1.538   6.529  -4.001  1.00  0.00    -0.205 F 
ATOM     20  F   UNL     1      -2.722   6.758  -6.120  1.00  0.00    -0.207 F 
ENDBRANCH  10  13
ENDBRANCH   1   7
BRANCH   4  21
ATOM     21  C   UNL     1       0.820  -0.689   1.169  1.00  0.00     0.086 C 
ATOM     22  C   UNL     1       1.388  -1.345  -0.095  1.00  0.00     0.040 C 
ATOM     23  C   UNL     1       1.139  -1.570   2.396  1.00  0.00     0.040 C 
ATOM     24  C   UNL     1       0.773  -2.746  -0.319  1.00  0.00     0.087 C 
ATOM     25  C   UNL     1       1.052  -3.075   2.071  1.00  0.00     0.087 C 
ATOM     26  N   UNL     1       0.160  -3.318   0.912  1.00  0.00    -0.296 NA
BRANCH  26  27
ATOM     27  C   UNL     1      -0.141  -4.771   0.765  1.00  0.00     0.083 C 
ATOM     28  C   UNL     1      -0.948  -5.085  -0.511  1.00  0.00     0.030 C 
BRANCH  27  29
ATOM     29  C   UNL     1      -0.945  -5.272   1.952  1.00  0.00    -0.031 A 
ATOM     30  C   UNL     1      -2.107  -4.594   2.368  1.00  0.00     0.005 A 
ATOM     31  C   UNL     1      -0.545  -6.433   2.640  1.00  0.00     0.005 A 
ATOM     32  C   UNL     1      -2.846  -5.062   3.460  1.00  0.00     0.000 A 
ATOM     33  C   UNL     1      -1.289  -6.897   3.730  1.00  0.00     0.000 A 
ATOM     34  C   UNL     1      -2.438  -6.212   4.140  1.00  0.00     0.000 A 
ENDBRANCH  27  29
ENDBRANCH  26  27
ENDBRANCH   4  21
TORSDOF 5
