REMARK SMILES O=C(c1c[nH]nc1-c1ccc(Cl)s1)N1CCN(CC2CC2)CC1
REMARK SMILES IDX 1 1 2 2 14 3 15 4 16 5 17 6 22 7 23 8 3 9 4 10 7 11 5 12
REMARK SMILES IDX 6 13 8 15 9 16 13 17 10 18 11 19 12 20 18 21 19 22 20 23
REMARK SMILES IDX 21 24
REMARK H PARENT 5 14
ROOT
ATOM      1  O   UNL     1       0.447  -2.214  -3.274  1.00  0.00    -0.269 OA
ATOM      2  C   UNL     1       0.795  -1.685  -2.184  1.00  0.00     0.257 C 
ATOM      3  N   UNL     1      -0.200  -1.359  -1.196  1.00  0.00    -0.336 N 
ATOM      4  C   UNL     1       0.065  -1.663   0.218  1.00  0.00     0.135 C 
ATOM      5  C   UNL     1      -1.102  -1.226   1.102  1.00  0.00     0.106 C 
ATOM      6  N   UNL     1      -1.565   0.094   0.645  1.00  0.00    -0.300 NA
ATOM      7  C   UNL     1      -2.236  -0.010  -0.674  1.00  0.00     0.106 C 
ATOM      8  C   UNL     1      -1.565  -1.028  -1.626  1.00  0.00     0.135 C 
ENDROOT
BRANCH   2   9
ATOM      9  C   UNL     1       2.228  -1.452  -1.932  1.00  0.00     0.086 A 
ATOM     10  C   UNL     1       3.246  -2.347  -2.181  1.00  0.00     0.119 A 
ATOM     11  C   UNL     1       2.851  -0.361  -1.338  1.00  0.00     0.115 A 
ATOM     12  N   UNL     1       4.398  -1.814  -1.736  1.00  0.00    -0.284 N 
ATOM     13  N   UNL     1       4.170  -0.614  -1.226  1.00  0.00    -0.174 NA
ATOM     14  H   UNL     1       5.338  -2.266  -1.776  1.00  0.00     0.189 HD
BRANCH  11  15
ATOM     15  C   UNL     1       2.248   0.928  -0.957  1.00  0.00     0.057 A 
ATOM     16  C   UNL     1       2.787   1.827  -0.041  1.00  0.00     0.024 A 
ATOM     17  S   UNL     1       0.867   1.618  -1.633  1.00  0.00    -0.122 S 
ATOM     18  C   UNL     1       2.042   3.005   0.086  1.00  0.00     0.033 A 
ATOM     19  C   UNL     1       0.930   3.039  -0.742  1.00  0.00     0.094 A 
ATOM     20  Cl  UNL     1      -0.209   4.362  -0.876  1.00  0.00    -0.072 Cl
ENDBRANCH  11  15
ENDBRANCH   2   9
BRANCH   6  21
ATOM     21  C   UNL     1      -2.449   0.719   1.650  1.00  0.00     0.088 C 
BRANCH  21  22
ATOM     22  C   UNL     1      -2.584   2.223   1.376  1.00  0.00     0.003 C 
ATOM     23  C   UNL     1      -3.716   2.901   2.132  1.00  0.00     0.005 C 
ATOM     24  C   UNL     1      -3.837   2.665   0.635  1.00  0.00     0.005 C 
ENDBRANCH  21  22
ENDBRANCH   6  21
TORSDOF 4
