REMARK SMILES O=C1C[C@@](O)(C(=O)N2CC(CF)C2)c2cc(Br)ccc2N1
REMARK SMILES IDX 4 1 3 2 2 3 1 4 21 5 20 6 19 7 18 8 16 9 17 10 15 11 14 12
REMARK SMILES IDX 6 14 7 15 8 16 9 17 13 18 10 19 11 20 12 21 5 22
REMARK H PARENT 21 13 5 23
ROOT
ATOM      1  C   UNL     1       1.268  -0.124  -1.415  1.00  0.00     0.179 C 
ATOM      2  C   UNL     1       0.667   0.984  -2.315  1.00  0.00     0.151 C 
ATOM      3  C   UNL     1      -0.799   1.165  -2.094  1.00  0.00     0.228 C 
ATOM      4  O   UNL     1      -1.316   2.313  -2.145  1.00  0.00    -0.275 OA
ATOM      5  N   UNL     1      -1.621   0.016  -1.917  1.00  0.00    -0.326 N 
ATOM      6  C   UNL     1      -1.030  -1.257  -1.627  1.00  0.00     0.047 A 
ATOM      7  C   UNL     1      -1.849  -2.391  -1.537  1.00  0.00     0.028 A 
ATOM      8  C   UNL     1      -1.310  -3.625  -1.175  1.00  0.00     0.018 A 
ATOM      9  C   UNL     1       0.049  -3.734  -0.881  1.00  0.00     0.018 A 
ATOM     10  Br  UNL     1       0.776  -5.418  -0.348  1.00  0.00    -0.051 Br
ATOM     11  C   UNL     1       0.877  -2.611  -0.964  1.00  0.00     0.025 A 
ATOM     12  C   UNL     1       0.359  -1.361  -1.361  1.00  0.00     0.018 A 
ATOM     13  H   UNL     1      -2.661   0.119  -1.949  1.00  0.00     0.169 HD
ENDROOT
BRANCH   1  14
ATOM     14  C   UNL     1       1.525   0.459  -0.025  1.00  0.00     0.259 C 
ATOM     15  O   UNL     1       2.568   1.142   0.157  1.00  0.00    -0.271 OA
ATOM     16  N   UNL     1       0.610   0.318   1.069  1.00  0.00    -0.339 N 
ATOM     17  C   UNL     1       0.600   0.760   2.476  1.00  0.00     0.127 C 
ATOM     18  C   UNL     1      -0.702  -0.279   1.397  1.00  0.00     0.127 C 
ATOM     19  C   UNL     1      -0.725   0.159   2.828  1.00  0.00     0.059 C 
BRANCH  19  20
ATOM     20  C   UNL     1      -1.817   1.183   3.154  1.00  0.00     0.221 C 
ATOM     21  F   UNL     1      -1.594   1.714   4.411  1.00  0.00    -0.251 F 
ENDBRANCH  19  20
ENDBRANCH   1  14
BRANCH   1  22
ATOM     22  O   UNL     1       2.495  -0.485  -2.016  1.00  0.00    -0.375 OA
ATOM     23  H   UNL     1       3.075  -0.928  -1.343  1.00  0.00     0.212 HD
ENDBRANCH   1  22
TORSDOF 3
