REMARK SMILES O=C(NC1CCOCC1)c1cncc(-c2ccc3c(c2)CCO3)c1
REMARK SMILES IDX 10 1 11 2 12 3 13 4 14 5 24 6 2 7 1 8 3 9 4 11 5 12 9 13
REMARK SMILES IDX 6 14 8 15 7 16 15 17 16 18 20 19 17 20 19 21 18 22 21 23
REMARK SMILES IDX 23 24 22 25
REMARK H PARENT 3 10
ROOT
ATOM      1  C   UNL     1      -1.621   0.991  -2.479  1.00  0.00     0.058 A 
ATOM      2  C   UNL     1      -1.884   1.973  -3.447  1.00  0.00     0.124 A 
ATOM      3  N   UNL     1      -1.373   3.224  -3.311  1.00  0.00    -0.263 NA
ATOM      4  C   UNL     1      -0.594   3.572  -2.254  1.00  0.00     0.119 A 
ATOM      5  C   UNL     1      -0.283   2.629  -1.262  1.00  0.00     0.001 A 
ATOM      6  C   UNL     1      -0.805   1.331  -1.387  1.00  0.00     0.025 A 
ENDROOT
BRANCH   1   7
ATOM      7  C   UNL     1      -2.171  -0.377  -2.630  1.00  0.00     0.253 C 
ATOM      8  O   UNL     1      -2.502  -0.789  -3.775  1.00  0.00    -0.269 OA
ATOM      9  N   UNL     1      -2.343  -1.233  -1.489  1.00  0.00    -0.349 N 
ATOM     10  H   UNL     1      -2.377  -0.796  -0.541  1.00  0.00     0.164 HD
BRANCH   9  11
ATOM     11  C   UNL     1      -2.571  -2.678  -1.625  1.00  0.00     0.086 C 
ATOM     12  C   UNL     1      -1.297  -3.382  -2.121  1.00  0.00     0.053 C 
ATOM     13  C   UNL     1      -3.013  -3.294  -0.284  1.00  0.00     0.053 C 
ATOM     14  C   UNL     1      -0.250  -3.447  -1.002  1.00  0.00     0.162 C 
ATOM     15  C   UNL     1      -1.831  -3.393   0.692  1.00  0.00     0.162 C 
ATOM     16  O   UNL     1      -0.763  -4.130   0.126  1.00  0.00    -0.381 OA
ENDBRANCH   9  11
ENDBRANCH   1   7
BRANCH   5  17
ATOM     17  C   UNL     1       0.582   2.993  -0.111  1.00  0.00    -0.016 A 
ATOM     18  C   UNL     1       0.446   4.257   0.519  1.00  0.00     0.012 A 
ATOM     19  C   UNL     1       1.551   2.084   0.373  1.00  0.00     0.016 A 
ATOM     20  C   UNL     1       1.261   4.604   1.609  1.00  0.00     0.047 A 
ATOM     21  C   UNL     1       2.344   2.460   1.457  1.00  0.00    -0.002 A 
ATOM     22  C   UNL     1       2.201   3.678   2.051  1.00  0.00     0.122 A 
ATOM     23  C   UNL     1       3.419   1.689   2.133  1.00  0.00     0.081 C 
ATOM     24  O   UNL     1       3.085   3.836   3.096  1.00  0.00    -0.493 OA
ATOM     25  C   UNL     1       3.889   2.665   3.240  1.00  0.00     0.234 C 
ENDBRANCH   5  17
TORSDOF 3
