REMARK SMILES O=C1CCC(=O)N1c1ccc(S(=O)(=O)NC[C@@H]2CCOC2)cn1
REMARK SMILES IDX 12 1 13 2 14 3 11 4 8 5 9 6 23 7 10 8 22 9 7 10 1 11 2 12
REMARK SMILES IDX 3 13 4 14 5 15 6 16 15 17 16 19 17 20 18 21 21 22 19 23
REMARK SMILES IDX 20 24
REMARK H PARENT 15 18
ROOT
ATOM      1  S   UNL     1      -0.882   2.788  -0.537  1.00  0.00     0.242 S 
ATOM      2  O   UNL     1      -1.272   4.029   0.215  1.00  0.00    -0.207 OA
ATOM      3  O   UNL     1      -1.772   2.661  -1.743  1.00  0.00    -0.207 OA
ENDROOT
BRANCH   1   4
ATOM      4  C   UNL     1      -1.084   1.393   0.519  1.00  0.00     0.100 A 
ATOM      5  C   UNL     1      -1.375  -0.835   2.169  1.00  0.00     0.142 A 
ATOM      6  C   UNL     1      -0.674   0.289   2.633  1.00  0.00     0.049 A 
ATOM      7  N   UNL     1      -1.888  -0.824   0.906  1.00  0.00    -0.237 NA
ATOM      8  C   UNL     1      -0.532   1.402   1.803  1.00  0.00     0.027 A 
ATOM      9  C   UNL     1      -1.762   0.249   0.082  1.00  0.00     0.135 A 
BRANCH   5  10
ATOM     10  N   UNL     1      -1.536  -2.006   2.990  1.00  0.00    -0.234 N 
ATOM     11  O   UNL     1      -1.621  -1.059   5.153  1.00  0.00    -0.274 OA
ATOM     12  C   UNL     1      -1.654  -2.071   4.405  1.00  0.00     0.235 C 
ATOM     13  C   UNL     1      -1.893  -3.455   4.911  1.00  0.00     0.111 C 
ATOM     14  C   UNL     1      -1.969  -4.311   3.633  1.00  0.00     0.111 C 
ATOM     15  C   UNL     1      -1.744  -3.332   2.530  1.00  0.00     0.235 C 
ATOM     16  O   UNL     1      -1.722  -3.652   1.312  1.00  0.00    -0.274 OA
ENDBRANCH   5  10
ENDBRANCH   1   4
BRANCH   1  17
ATOM     17  N   UNL     1       0.776   2.919  -1.040  1.00  0.00    -0.211 NA
ATOM     18  H   UNL     1       0.839   3.779  -1.631  1.00  0.00     0.141 HD
BRANCH  17  19
ATOM     19  C   UNL     1       1.134   1.764  -1.869  1.00  0.00     0.105 C 
BRANCH  19  20
ATOM     20  C   UNL     1       2.639   1.783  -2.190  1.00  0.00     0.032 C 
ATOM     21  C   UNL     1       3.049   2.900  -3.110  1.00  0.00     0.036 C 
ATOM     22  C   UNL     1       3.090   0.553  -2.959  1.00  0.00     0.165 C 
ATOM     23  C   UNL     1       4.234   2.308  -3.849  1.00  0.00     0.160 C 
ATOM     24  O   UNL     1       4.190   0.900  -3.768  1.00  0.00    -0.381 OA
ENDBRANCH  19  20
ENDBRANCH  17  19
ENDBRANCH   1  17
TORSDOF 5
