REMARK SMILES Cc1ccc(CC(C)(C)NC(=O)c2cc(-c3ccn(C)n3)on2)cc1
REMARK SMILES IDX 10 1 11 2 12 3 7 5 8 6 9 7 6 8 5 9 2 10 3 11 25 12 4 13
REMARK SMILES IDX 24 14 1 15 13 16 14 17 23 18 15 19 22 20 16 21 17 22 21 23
REMARK SMILES IDX 18 24 19 25 20 26
REMARK H PARENT 10 4
ROOT
ATOM      1  N   UNL     1       2.133   0.406  -0.570  1.00  0.00    -0.345 N 
ATOM      2  C   UNL     1       2.789   0.406   0.712  1.00  0.00     0.273 C 
ATOM      3  O   UNL     1       3.800   1.130   0.914  1.00  0.00    -0.267 OA
ATOM      4  H   UNL     1       1.526  -0.414  -0.783  1.00  0.00     0.164 HD
ENDROOT
BRANCH   1   5
ATOM      5  C   UNL     1       2.296   1.445  -1.607  1.00  0.00     0.039 C 
ATOM      6  C   UNL     1       2.130   2.855  -0.994  1.00  0.00     0.035 C 
ATOM      7  C   UNL     1       3.701   1.322  -2.230  1.00  0.00     0.035 C 
BRANCH   5   8
ATOM      8  C   UNL     1       1.246   1.232  -2.741  1.00  0.00     0.063 C 
BRANCH   8   9
ATOM      9  C   UNL     1      -0.194   1.321  -2.278  1.00  0.00    -0.046 A 
ATOM     10  C   UNL     1      -2.861   1.498  -1.384  1.00  0.00    -0.051 A 
ATOM     11  C   UNL     1      -2.173   2.651  -1.791  1.00  0.00     0.004 A 
ATOM     12  C   UNL     1      -2.223   0.252  -1.464  1.00  0.00     0.004 A 
ATOM     13  C   UNL     1      -0.850   2.563  -2.232  1.00  0.00     0.004 A 
ATOM     14  C   UNL     1      -0.900   0.164  -1.907  1.00  0.00     0.004 A 
ATOM     15  C   UNL     1      -4.292   1.587  -0.945  1.00  0.00     0.044 C 
ENDBRANCH   8   9
ENDBRANCH   5   8
ENDBRANCH   1   5
BRANCH   2  16
ATOM     16  C   UNL     1       2.298  -0.450   1.805  1.00  0.00     0.171 A 
ATOM     17  C   UNL     1       1.130  -1.189   1.817  1.00  0.00     0.090 A 
ATOM     18  N   UNL     1       2.937  -0.596   2.983  1.00  0.00    -0.074 NA
ATOM     19  C   UNL     1       1.134  -1.773   3.065  1.00  0.00     0.187 A 
ATOM     20  O   UNL     1       2.213  -1.396   3.711  1.00  0.00    -0.354 OA
BRANCH  19  21
ATOM     21  C   UNL     1       0.108  -2.668   3.610  1.00  0.00     0.130 A 
ATOM     22  C   UNL     1       0.119  -3.240   4.869  1.00  0.00     0.054 A 
ATOM     23  N   UNL     1      -1.002  -3.040   2.942  1.00  0.00    -0.170 NA
ATOM     24  C   UNL     1      -1.045  -3.977   4.919  1.00  0.00     0.109 A 
ATOM     25  N   UNL     1      -1.684  -3.843   3.742  1.00  0.00    -0.275 N 
ATOM     26  C   UNL     1      -2.986  -4.405   3.410  1.00  0.00     0.173 C 
ENDBRANCH  19  21
ENDBRANCH   2  16
TORSDOF 5
