REMARK SMILES CN1CC[C@@H]2[C@H]1CCCN2C(=O)[C@@H]1CCN(c2ccc(-c3nn[nH]n3)cc2F)C1
REMARK SMILES IDX 13 1 14 2 15 3 16 4 29 5 11 6 12 7 10 8 2 9 3 10 6 11 4 12
REMARK SMILES IDX 5 13 7 14 8 15 9 16 1 17 17 18 18 19 27 20 19 21 26 22 20 23
REMARK SMILES IDX 28 24 21 25 22 26 25 27 23 28 24 29
REMARK H PARENT 24 30
ROOT
ATOM      1  C   UNL     1      -0.658  -0.758  -2.770  1.00  0.00     0.100 C 
ATOM      2  C   UNL     1       0.605  -0.262  -3.482  1.00  0.00     0.037 C 
ATOM      3  C   UNL     1       1.119   0.932  -2.687  1.00  0.00     0.117 C 
ATOM      4  N   UNL     1       0.236   1.097  -1.539  1.00  0.00    -0.368 N 
ATOM      5  C   UNL     1      -0.853   0.131  -1.534  1.00  0.00     0.130 C 
ENDROOT
BRANCH   1   6
ATOM      6  C   UNL     1      -0.597  -2.242  -2.466  1.00  0.00     0.227 C 
ATOM      7  O   UNL     1      -0.980  -3.052  -3.354  1.00  0.00    -0.274 OA
BRANCH   6   8
ATOM      8  N   UNL     1      -0.129  -2.754  -1.201  1.00  0.00    -0.338 N 
ATOM      9  N   UNL     1      -1.600  -4.641   1.582  1.00  0.00    -0.301 NA
ATOM     10  C   UNL     1      -2.724  -4.617   0.631  1.00  0.00     0.086 C 
ATOM     11  C   UNL     1      -0.408  -4.138   0.871  1.00  0.00     0.079 C 
ATOM     12  C   UNL     1      -2.310  -3.747  -0.539  1.00  0.00     0.042 C 
ATOM     13  C   UNL     1      -0.804  -3.919  -0.598  1.00  0.00     0.103 C 
ATOM     14  C   UNL     1       0.030  -2.817   1.524  1.00  0.00     0.023 C 
ATOM     15  C   UNL     1       1.235  -2.193   0.805  1.00  0.00     0.023 C 
ATOM     16  C   UNL     1       1.215  -2.408  -0.719  1.00  0.00     0.120 C 
ATOM     17  C   UNL     1      -1.387  -5.988   2.133  1.00  0.00     0.105 C 
ENDBRANCH   6   8
ENDBRANCH   1   6
BRANCH   4  18
ATOM     18  C   UNL     1       0.438   2.118  -0.524  1.00  0.00     0.073 A 
ATOM     19  C   UNL     1       1.511   3.028  -0.640  1.00  0.00     0.030 A 
ATOM     20  C   UNL     1      -0.413   2.238   0.602  1.00  0.00     0.147 A 
ATOM     21  C   UNL     1       1.730   4.014   0.324  1.00  0.00     0.014 A 
ATOM     22  C   UNL     1      -0.183   3.225   1.567  1.00  0.00     0.053 A 
ATOM     23  C   UNL     1       0.888   4.120   1.437  1.00  0.00     0.026 A 
ATOM     24  F   UNL     1      -1.475   1.418   0.791  1.00  0.00    -0.205 F 
BRANCH  23  25
ATOM     25  C   UNL     1       1.123   5.163   2.458  1.00  0.00     0.204 A 
ATOM     26  N   UNL     1       2.089   6.101   2.382  1.00  0.00    -0.108 NA
ATOM     27  N   UNL     1       0.400   5.301   3.587  1.00  0.00    -0.134 NA
ATOM     28  N   UNL     1       1.952   6.822   3.482  1.00  0.00    -0.050 NA
ATOM     29  N   UNL     1       0.947   6.340   4.193  1.00  0.00    -0.177 N 
ATOM     30  H   UNL     1       0.628   6.729   5.108  1.00  0.00     0.216 HD
ENDBRANCH  23  25
ENDBRANCH   4  18
TORSDOF 4
