REMARK SMILES CC[C@H]1Cc2ccccc2CN1C(=O)[C@H]1CCc2nncn2CC1
REMARK SMILES IDX 15 1 13 2 14 3 12 4 3 5 4 6 5 7 11 8 6 9 10 10 7 11 9 12
REMARK SMILES IDX 8 13 2 14 1 15 16 16 24 18 23 19 22 20 21 21 18 22 20 23
REMARK SMILES IDX 19 24 17 25
REMARK H PARENT
REMARK Flexibility Score:   51.900
ROOT
ATOM      1  C   UNL     1       1.434  -0.303  -1.131  1.00  0.00     0.081 C 
ENDROOT
BRANCH   1   2
ATOM      2  C   UNL     1       0.192   0.532  -1.379  1.00  0.00     0.226 C 
ATOM      3  O   UNL     1       0.132   1.202  -2.446  1.00  0.00    -0.275 OA
BRANCH   2   4
ATOM      4  N   UNL     1      -0.928   0.568  -0.465  1.00  0.00    -0.335 N 
ATOM      5  C   UNL     1      -2.302   0.558  -1.027  1.00  0.00     0.089 C 
ATOM      6  C   UNL     1      -3.382   0.851   0.049  1.00  0.00     0.061 C 
ATOM      7  C   UNL     1      -2.914   1.893   1.025  1.00  0.00    -0.041 A 
ATOM      8  C   UNL     1      -0.709   0.733   0.982  1.00  0.00     0.155 C 
ATOM      9  C   UNL     1      -3.785   2.876   1.520  1.00  0.00     0.004 A 
ATOM     10  C   UNL     1      -1.599   1.821   1.505  1.00  0.00    -0.025 A 
ATOM     11  C   UNL     1      -3.334   3.793   2.475  1.00  0.00     0.000 A 
ATOM     12  C   UNL     1      -1.155   2.734   2.473  1.00  0.00     0.006 A 
ATOM     13  C   UNL     1      -2.021   3.722   2.951  1.00  0.00     0.000 A 
BRANCH   5  14
ATOM     14  C   UNL     1      -2.569  -0.795  -1.727  1.00  0.00     0.022 C 
ATOM     15  C   UNL     1      -3.888  -0.813  -2.500  1.00  0.00     0.006 C 
ENDBRANCH   5  14
ENDBRANCH   2   4
ENDBRANCH   1   2
BRANCH   1  16
ATOM     16  C   UNL     1       2.597   0.603  -0.641  1.00  0.00     0.021 CG0
ATOM     17  G   UNL     1       3.734  -0.132   0.086  1.00  0.00     0.000 G0
ENDBRANCH   1  16
BRANCH   1  18
ATOM     18  C   UNL     1       1.169  -1.526  -0.216  1.00  0.00     0.035 C 
BRANCH  18  19
ATOM     19  C   UNL     1       2.052  -2.748  -0.548  1.00  0.00     0.126 C 
BRANCH  19  20
ATOM     20  N   UNL     1       3.427  -2.417  -0.944  1.00  0.00    -0.318 N 
ATOM     21  C   UNL     1       4.264  -3.223  -1.623  1.00  0.00     0.225 A 
ATOM     22  C   UNL     1       4.190  -1.338  -0.671  1.00  0.00     0.132 A 
ATOM     23  N   UNL     1       5.476  -2.655  -1.774  1.00  0.00    -0.139 NA
ATOM     24  N   UNL     1       5.430  -1.472  -1.179  1.00  0.00    -0.136 NA
BRANCH  22  25
ATOM     25  C   UNL     1       3.734  -0.132   0.086  1.00  0.00     0.078 CG0
ATOM     26  G   UNL     1       2.597   0.603  -0.641  1.00  0.00     0.000 G0
ENDBRANCH  22  25
ENDBRANCH  19  20
ENDBRANCH  18  19
ENDBRANCH   1  18
TORSDOF 3
