REMARK SMILES Cc1nc(N2CCCN(c3ccncc3)CC2)c(C)c(-n2cccn2)n1
REMARK SMILES IDX 17 1 5 2 4 3 2 4 3 5 26 6 20 7 18 8 1 9 19 10 21 11 22 12
REMARK SMILES IDX 25 13 23 14 24 15 6 16 7 17 16 19 9 20 8 21 10 23 11 24
REMARK SMILES IDX 15 25 12 26 14 27 13 28
REMARK H PARENT
REMARK Flexibility Score:   55.900
ROOT
ATOM      1  C   UNL     1       0.340  -1.283  -1.520  1.00  0.00     0.139 C 
ENDROOT
BRANCH   1   2
ATOM      2  N   UNL     1      -0.642  -0.851  -0.517  1.00  0.00    -0.354 N 
BRANCH   2   3
ATOM      3  C   UNL     1      -0.590   0.499  -0.024  1.00  0.00     0.137 A 
ATOM      4  C   UNL     1      -1.481   2.692  -0.078  1.00  0.00     0.130 A 
ATOM      5  N   UNL     1      -1.502   1.397  -0.477  1.00  0.00    -0.216 NA
ATOM      6  N   UNL     1      -0.496   3.127   0.746  1.00  0.00    -0.214 NA
ATOM      7  C   UNL     1       0.456   2.286   1.232  1.00  0.00     0.162 A 
ATOM      8  C   UNL     1       0.401   0.911   0.894  1.00  0.00     0.036 A 
ATOM      9  C   UNL     1      -2.482   3.657  -0.619  1.00  0.00     0.090 C 
ATOM     10  C   UNL     1       1.339  -0.094   1.512  1.00  0.00     0.052 C 
BRANCH   7  11
ATOM     11  N   UNL     1       1.495   2.831   2.064  1.00  0.00    -0.222 N 
ATOM     12  C   UNL     1       1.380   3.926   2.842  1.00  0.00     0.117 A 
ATOM     13  N   UNL     1       2.745   2.395   2.095  1.00  0.00    -0.175 NA
ATOM     14  C   UNL     1       2.605   4.185   3.416  1.00  0.00     0.042 A 
ATOM     15  C   UNL     1       3.439   3.200   2.923  1.00  0.00     0.135 A 
ENDBRANCH   7  11
ENDBRANCH   2   3
BRANCH   2  16
ATOM     16  C   UNL     1      -1.883  -1.619  -0.363  1.00  0.00     0.120 C 
BRANCH  16  17
ATOM     17  C   UNL     1      -1.738  -2.690   0.725  1.00  0.00     0.043 CG0
ATOM     18  G   UNL     1      -0.574  -3.687   0.524  1.00  0.00     0.000 G0
ENDBRANCH  16  17
ENDBRANCH   2  16
ENDBRANCH   1   2
BRANCH   1  19
ATOM     19  C   UNL     1       1.007  -2.604  -1.127  1.00  0.00     0.138 C 
BRANCH  19  20
ATOM     20  N   UNL     1       0.009  -3.644  -0.827  1.00  0.00    -0.370 N 
BRANCH  20  21
ATOM     21  C   UNL     1      -0.574  -3.687   0.524  1.00  0.00     0.118 CG0
ATOM     22  G   UNL     1      -1.738  -2.690   0.725  1.00  0.00     0.000 G0
ENDBRANCH  20  21
BRANCH  20  23
ATOM     23  C   UNL     1      -0.411  -4.592  -1.835  1.00  0.00     0.040 A 
ATOM     24  C   UNL     1      -1.769  -4.923  -1.988  1.00  0.00     0.046 A 
ATOM     25  C   UNL     1       0.532  -5.237  -2.655  1.00  0.00     0.046 A 
ATOM     26  C   UNL     1      -2.154  -5.848  -2.961  1.00  0.00     0.113 A 
ATOM     27  C   UNL     1       0.104  -6.157  -3.615  1.00  0.00     0.113 A 
ATOM     28  N   UNL     1      -1.218  -6.439  -3.749  1.00  0.00    -0.265 NA
ENDBRANCH  20  23
ENDBRANCH  19  20
ENDBRANCH   1  19
TORSDOF 3
