REMARK SMILES Cn1c(=O)n(C)c2cc(S(=O)(=O)Nc3ccc4c(c3)NCC4)c(Br)cc21
REMARK SMILES IDX 10 1 11 2 12 3 9 4 2 5 3 6 26 7 4 8 5 9 25 10 7 11 23 12
REMARK SMILES IDX 8 13 1 14 6 15 24 16 13 17 14 19 15 20 19 21 16 22 18 23
REMARK SMILES IDX 17 24 20 25 22 26 21 27
REMARK H PARENT 13 18 20 28
ROOT
ATOM      1  S   UNL     1       1.500   3.012   1.664  1.00  0.00     0.263 S 
ATOM      2  O   UNL     1       1.063   4.401   2.038  1.00  0.00    -0.201 OA
ATOM      3  O   UNL     1       2.699   2.632   2.489  1.00  0.00    -0.201 OA
ENDROOT
BRANCH   1   4
ATOM      4  C   UNL     1       0.147   1.900   1.924  1.00  0.00     0.104 A 
ATOM      5  N   UNL     1      -3.015  -0.729   2.116  1.00  0.00    -0.295 N 
ATOM      6  C   UNL     1      -3.388  -0.628   0.816  1.00  0.00     0.328 A 
ATOM      7  C   UNL     1      -1.966   0.111   2.225  1.00  0.00     0.070 A 
ATOM      8  O   UNL     1      -4.329  -1.296   0.307  1.00  0.00    -0.248 OA
ATOM      9  N   UNL     1      -2.639   0.261   0.118  1.00  0.00    -0.295 N 
ATOM     10  C   UNL     1      -1.177   0.386   3.341  1.00  0.00     0.045 A 
ATOM     11  C   UNL     1      -1.737   0.707   1.016  1.00  0.00     0.070 A 
ATOM     12  C   UNL     1      -0.116   1.300   3.194  1.00  0.00     0.040 A 
ATOM     13  C   UNL     1      -0.693   1.607   0.826  1.00  0.00     0.052 A 
ATOM     14  C   UNL     1      -3.544  -1.636   3.132  1.00  0.00     0.155 C 
ATOM     15  C   UNL     1      -2.719   0.575  -1.308  1.00  0.00     0.155 C 
ATOM     16  Br  UNL     1       0.915   1.700   4.764  1.00  0.00    -0.049 Br
ENDBRANCH   1   4
BRANCH   1  17
ATOM     17  N   UNL     1       1.964   2.995  -0.011  1.00  0.00    -0.280 N 
ATOM     18  H   UNL     1       1.915   3.903  -0.527  1.00  0.00     0.180 HD
BRANCH  17  19
ATOM     19  C   UNL     1       2.263   1.790  -0.738  1.00  0.00     0.051 A 
ATOM     20  C   UNL     1       2.288   1.825  -2.153  1.00  0.00     0.027 A 
ATOM     21  C   UNL     1       2.528   0.570  -0.074  1.00  0.00     0.052 A 
ATOM     22  C   UNL     1       2.582   0.667  -2.893  1.00  0.00     0.008 A 
ATOM     23  C   UNL     1       2.806  -0.560  -0.839  1.00  0.00     0.039 A 
ATOM     24  C   UNL     1       2.841  -0.516  -2.202  1.00  0.00    -0.023 A 
ATOM     25  N   UNL     1       3.101  -1.851  -0.350  1.00  0.00    -0.384 N 
ATOM     26  C   UNL     1       3.199  -1.852  -2.755  1.00  0.00     0.059 C 
ATOM     27  C   UNL     1       3.363  -2.730  -1.487  1.00  0.00     0.117 C 
ATOM     28  H   UNL     1       3.198  -2.114   0.656  1.00  0.00     0.160 HD
ENDBRANCH  17  19
ENDBRANCH   1  17
TORSDOF 3
