REMARK SMILES O=C(Nc1cccc(CCO)c1)c1c[nH]c2ncnc(O)c12
REMARK SMILES IDX 4 1 5 2 6 3 7 4 8 5 12 6 3 7 1 8 2 9 13 11 14 12 22 13 15 14
REMARK SMILES IDX 20 15 16 16 19 17 17 18 18 19 21 21 9 23 10 24 11 25
REMARK H PARENT 3 10 15 20 21 22 11 26
ROOT
ATOM      1  C   UNL     1       0.534  -0.689   0.963  1.00  0.00     0.041 A 
ATOM      2  C   UNL     1       0.761  -0.093   2.212  1.00  0.00     0.026 A 
ATOM      3  C   UNL     1       2.064   0.117   2.669  1.00  0.00     0.002 A 
ATOM      4  C   UNL     1       3.153  -0.284   1.891  1.00  0.00     0.004 A 
ATOM      5  C   UNL     1       2.944  -0.918   0.657  1.00  0.00    -0.044 A 
ATOM      6  C   UNL     1       1.632  -1.117   0.196  1.00  0.00     0.030 A 
ENDROOT
BRANCH   1   7
ATOM      7  N   UNL     1      -0.817  -0.903   0.523  1.00  0.00    -0.322 N 
ATOM      8  O   UNL     1      -0.450  -0.405  -1.739  1.00  0.00    -0.269 OA
ATOM      9  C   UNL     1      -1.267  -0.701  -0.827  1.00  0.00     0.258 C 
ATOM     10  H   UNL     1      -1.526  -1.152   1.249  1.00  0.00     0.170 HD
BRANCH   9  11
ATOM     11  C   UNL     1      -2.687  -0.866  -1.172  1.00  0.00     0.072 A 
ATOM     12  C   UNL     1      -3.177  -1.540  -2.289  1.00  0.00     0.099 A 
ATOM     13  C   UNL     1      -3.805  -0.413  -0.489  1.00  0.00     0.093 A 
ATOM     14  N   UNL     1      -4.530  -1.532  -2.292  1.00  0.00    -0.345 N 
ATOM     15  C   UNL     1      -3.996   0.394   0.632  1.00  0.00     0.224 A 
ATOM     16  C   UNL     1      -4.890  -0.847  -1.196  1.00  0.00     0.145 A 
ATOM     17  N   UNL     1      -5.279   0.671   1.010  1.00  0.00    -0.201 NA
ATOM     18  N   UNL     1      -6.160  -0.559  -0.820  1.00  0.00    -0.218 NA
ATOM     19  C   UNL     1      -6.351   0.195   0.302  1.00  0.00     0.228 A 
ATOM     20  H   UNL     1      -5.160  -1.960  -3.006  1.00  0.00     0.167 HD
BRANCH  15  21
ATOM     21  O   UNL     1      -2.925   0.934   1.335  1.00  0.00    -0.493 OA
ATOM     22  H   UNL     1      -3.078   1.526   2.143  1.00  0.00     0.295 HD
ENDBRANCH  15  21
ENDBRANCH   9  11
ENDBRANCH   1   7
BRANCH   5  23
ATOM     23  C   UNL     1       4.120  -1.341  -0.186  1.00  0.00     0.063 C 
BRANCH  23  24
ATOM     24  C   UNL     1       4.607  -0.195  -1.072  1.00  0.00     0.161 C 
BRANCH  24  25
ATOM     25  O   UNL     1       3.615   0.153  -1.999  1.00  0.00    -0.396 OA
ATOM     26  H   UNL     1       3.988   0.903  -2.531  1.00  0.00     0.210 HD
ENDBRANCH  24  25
ENDBRANCH  23  24
ENDBRANCH   5  23
TORSDOF 6
