REMARK SMILES O=C(C[C@H]1C[C@H]2CC[C@@H](C1)N2)Nc1ccc(OCc2cccnc2)c(Cl)c1
REMARK SMILES IDX 13 1 14 2 15 3 16 4 25 5 26 6 27 7 12 8 1 9 2 10 3 12 4 13
REMARK SMILES IDX 5 14 10 15 6 16 9 17 7 18 11 19 8 20 17 22 18 23 19 24 20 25
REMARK SMILES IDX 24 26 21 27 23 28 22 29
REMARK H PARENT 12 11 11 21
ROOT
ATOM      1  C   UNL     1      -1.281   0.549  -1.163  1.00  0.00     0.042 A 
ATOM      2  C   UNL     1      -0.053  -0.050  -0.834  1.00  0.00     0.030 A 
ATOM      3  C   UNL     1       0.449  -1.103  -1.603  1.00  0.00     0.050 A 
ATOM      4  C   UNL     1      -0.271  -1.577  -2.716  1.00  0.00     0.138 A 
ATOM      5  C   UNL     1      -1.502  -0.985  -3.037  1.00  0.00     0.085 A 
ATOM      6  Cl  UNL     1      -2.432  -1.552  -4.417  1.00  0.00    -0.080 Cl
ATOM      7  C   UNL     1      -2.007   0.062  -2.258  1.00  0.00     0.050 A 
ENDROOT
BRANCH   1   8
ATOM      8  N   UNL     1      -1.835   1.601  -0.358  1.00  0.00    -0.326 N 
ATOM      9  O   UNL     1       0.115   2.856  -0.070  1.00  0.00    -0.275 OA
ATOM     10  C   UNL     1      -1.036   2.559   0.349  1.00  0.00     0.224 C 
ATOM     11  H   UNL     1      -2.875   1.678  -0.288  1.00  0.00     0.169 HD
BRANCH  10  12
ATOM     12  C   UNL     1      -1.575   3.230   1.583  1.00  0.00     0.104 C 
BRANCH  12  13
ATOM     13  C   UNL     1      -1.252   2.472   2.889  1.00  0.00     0.001 C 
ATOM     14  C   UNL     1      -1.932   1.072   2.969  1.00  0.00     0.023 C 
ATOM     15  C   UNL     1       0.273   2.444   3.212  1.00  0.00     0.023 C 
ATOM     16  C   UNL     1      -1.272   0.153   4.035  1.00  0.00     0.054 C 
ATOM     17  C   UNL     1       0.639   1.348   4.254  1.00  0.00     0.054 C 
ATOM     18  C   UNL     1      -0.196  -0.747   3.409  1.00  0.00     0.020 C 
ATOM     19  N   UNL     1      -0.565   0.991   5.003  1.00  0.00    -0.311 NA
ATOM     20  C   UNL     1       1.089   0.053   3.564  1.00  0.00     0.020 C 
ATOM     21  H   UNL     1      -0.288   0.397   5.821  1.00  0.00     0.123 HD
ENDBRANCH  12  13
ENDBRANCH  10  12
ENDBRANCH   1   8
BRANCH   4  22
ATOM     22  O   UNL     1       0.200  -2.628  -3.519  1.00  0.00    -0.487 OA
BRANCH  22  23
ATOM     23  C   UNL     1       1.411  -3.342  -3.288  1.00  0.00     0.267 C 
BRANCH  23  24
ATOM     24  C   UNL     1       1.579  -4.380  -4.359  1.00  0.00     0.008 A 
ATOM     25  C   UNL     1       0.964  -5.635  -4.237  1.00  0.00     0.010 A 
ATOM     26  C   UNL     1       2.291  -4.088  -5.533  1.00  0.00     0.118 A 
ATOM     27  C   UNL     1       1.091  -6.576  -5.260  1.00  0.00     0.020 A 
ATOM     28  N   UNL     1       2.400  -5.021  -6.516  1.00  0.00    -0.264 NA
ATOM     29  C   UNL     1       1.824  -6.248  -6.404  1.00  0.00     0.111 A 
ENDBRANCH  23  24
ENDBRANCH  22  23
ENDBRANCH   4  22
TORSDOF 6
