REMARK SMILES O=C(Nc1nc2ccccc2n1C1CCCC1)c1coc(C2CCOCC2)n1
REMARK SMILES IDX 1 1 2 2 3 3 18 5 19 6 28 7 20 8 21 9 22 10 23 11 27 12 24 13
REMARK SMILES IDX 26 14 25 15 4 16 5 17 12 18 6 19 11 20 7 21 10 22 8 23 9 24
REMARK SMILES IDX 13 25 14 26 17 27 15 28 16 29
REMARK H PARENT 3 4
ROOT
ATOM      1  O   UNL     1      -0.616  -3.660   1.402  1.00  0.00    -0.267 OA
ATOM      2  C   UNL     1      -0.255  -2.821   0.533  1.00  0.00     0.279 C 
ATOM      3  N   UNL     1      -0.062  -1.442   0.888  1.00  0.00    -0.290 N 
ATOM      4  H   UNL     1       0.202  -0.776   0.131  1.00  0.00     0.173 HD
ENDROOT
BRANCH   2   5
ATOM      5  C   UNL     1      -0.051  -3.265  -0.856  1.00  0.00     0.167 A 
ATOM      6  C   UNL     1      -0.231  -4.545  -1.335  1.00  0.00     0.231 A 
ATOM      7  N   UNL     1       0.338  -2.458  -1.862  1.00  0.00    -0.208 NA
ATOM      8  O   UNL     1       0.042  -4.525  -2.616  1.00  0.00    -0.448 OA
ATOM      9  C   UNL     1       0.381  -3.292  -2.922  1.00  0.00     0.198 A 
BRANCH   9  10
ATOM     10  C   UNL     1       0.750  -2.845  -4.307  1.00  0.00     0.080 C 
ATOM     11  C   UNL     1       1.843  -3.744  -4.903  1.00  0.00     0.042 C 
ATOM     12  C   UNL     1      -0.485  -2.845  -5.219  1.00  0.00     0.042 C 
ATOM     13  C   UNL     1       2.082  -3.366  -6.371  1.00  0.00     0.161 C 
ATOM     14  C   UNL     1      -0.066  -2.537  -6.662  1.00  0.00     0.161 C 
ATOM     15  O   UNL     1       0.887  -3.478  -7.123  1.00  0.00    -0.381 OA
ENDBRANCH   9  10
ENDBRANCH   2   5
BRANCH   3  16
ATOM     16  C   UNL     1      -0.154  -0.960   2.240  1.00  0.00     0.211 A 
ATOM     17  N   UNL     1       0.001  -1.776   3.315  1.00  0.00    -0.213 NA
ATOM     18  N   UNL     1      -0.344   0.352   2.570  1.00  0.00    -0.307 N 
ATOM     19  C   UNL     1      -0.091  -0.933   4.354  1.00  0.00     0.091 A 
ATOM     20  C   UNL     1      -0.291   0.347   3.921  1.00  0.00     0.070 A 
ATOM     21  C   UNL     1       0.007  -1.250   5.707  1.00  0.00     0.031 A 
ATOM     22  C   UNL     1      -0.399   1.413   4.823  1.00  0.00     0.028 A 
ATOM     23  C   UNL     1      -0.103  -0.203   6.637  1.00  0.00     0.002 A 
ATOM     24  C   UNL     1      -0.305   1.124   6.197  1.00  0.00     0.002 A 
BRANCH  18  25
ATOM     25  C   UNL     1      -0.582   1.488   1.656  1.00  0.00     0.091 C 
ATOM     26  C   UNL     1       0.547   2.513   1.707  1.00  0.00     0.025 C 
ATOM     27  C   UNL     1      -1.884   2.239   1.966  1.00  0.00     0.025 C 
ATOM     28  C   UNL     1      -0.121   3.853   1.453  1.00  0.00     0.002 C 
ATOM     29  C   UNL     1      -1.532   3.724   2.008  1.00  0.00     0.002 C 
ENDBRANCH  18  25
ENDBRANCH   3  16
TORSDOF 4
