REMARK SMILES Cn1ncc(C(=O)N2CCC(Oc3ccc(Cl)cc3)CC2)c1C(F)F
REMARK SMILES IDX 6 1 7 2 8 3 9 4 10 5 11 6 20 7 21 8 5 9 2 10 3 11 22 12 4 13
REMARK SMILES IDX 1 14 23 15 24 16 25 17 12 18 13 19 14 20 19 21 15 22 18 23
REMARK SMILES IDX 16 24 17 25
REMARK H PARENT
ROOT
ATOM      1  C   UNL     1       1.706  -0.955  -1.365  1.00  0.00     0.257 C 
ATOM      2  O   UNL     1       2.369  -0.829  -0.301  1.00  0.00    -0.269 OA
ATOM      3  N   UNL     1       1.175   0.217  -2.017  1.00  0.00    -0.338 N 
ATOM      4  C   UNL     1       1.792   1.531  -1.796  1.00  0.00     0.123 C 
ATOM      5  C   UNL     1       0.876   2.425  -0.939  1.00  0.00     0.067 C 
ATOM      6  C   UNL     1      -0.622   2.059  -1.060  1.00  0.00     0.176 C 
ATOM      7  C   UNL     1      -0.923   1.476  -2.455  1.00  0.00     0.067 C 
ATOM      8  C   UNL     1      -0.142   0.168  -2.676  1.00  0.00     0.123 C 
ENDROOT
BRANCH   1   9
ATOM      9  C   UNL     1       1.486  -2.307  -1.918  1.00  0.00     0.087 A 
ATOM     10  N   UNL     1       1.272  -4.500  -2.154  1.00  0.00    -0.266 N 
ATOM     11  N   UNL     1       1.210  -3.978  -3.369  1.00  0.00    -0.180 NA
ATOM     12  C   UNL     1       1.436  -3.517  -1.241  1.00  0.00     0.117 A 
ATOM     13  C   UNL     1       1.338  -2.642  -3.253  1.00  0.00     0.149 A 
ATOM     14  C   UNL     1       1.168  -5.932  -1.894  1.00  0.00     0.174 C 
BRANCH  12  15
ATOM     15  C   UNL     1       1.557  -3.724   0.244  1.00  0.00     0.391 C 
ATOM     16  F   UNL     1       0.724  -2.846   0.913  1.00  0.00    -0.203 F 
ATOM     17  F   UNL     1       2.865  -3.512   0.637  1.00  0.00    -0.203 F 
ENDBRANCH  12  15
ENDBRANCH   1   9
BRANCH   6  18
ATOM     18  O   UNL     1      -0.945   1.105  -0.042  1.00  0.00    -0.490 OA
BRANCH  18  19
ATOM     19  C   UNL     1      -2.237   0.707   0.333  1.00  0.00     0.119 A 
ATOM     20  C   UNL     1      -2.362  -0.386   1.200  1.00  0.00     0.048 A 
ATOM     21  C   UNL     1      -3.401   1.362  -0.117  1.00  0.00     0.048 A 
ATOM     22  C   UNL     1      -3.624  -0.831   1.606  1.00  0.00     0.024 A 
ATOM     23  C   UNL     1      -4.662   0.916   0.291  1.00  0.00     0.024 A 
ATOM     24  C   UNL     1      -4.775  -0.181   1.151  1.00  0.00     0.041 A 
ATOM     25  Cl  UNL     1      -6.359  -0.738   1.660  1.00  0.00    -0.084 Cl
ENDBRANCH  18  19
ENDBRANCH   6  18
TORSDOF 4
