REMARK SMILES O=C(c1ccc2scnc2c1)N1CCC2(CCC(O)CC2)CC1
REMARK SMILES IDX 1 1 2 2 12 3 13 4 14 5 15 6 16 7 17 8 18 9 20 10 21 11 22 12
REMARK SMILES IDX 23 13 3 14 4 15 11 16 5 17 10 18 6 19 9 20 7 21 8 22 19 23
REMARK H PARENT 19 24
ROOT
ATOM      1  O   UNL     1      -0.485   2.350   0.890  1.00  0.00    -0.269 OA
ATOM      2  C   UNL     1       0.260   1.603   0.199  1.00  0.00     0.253 C 
ATOM      3  N   UNL     1      -0.321   0.771  -0.825  1.00  0.00    -0.339 N 
ATOM      4  C   UNL     1       0.186  -0.590  -1.056  1.00  0.00     0.120 C 
ATOM      5  C   UNL     1      -0.941  -1.536  -1.509  1.00  0.00     0.028 C 
ATOM      6  C   UNL     1      -2.303  -1.212  -0.819  1.00  0.00    -0.026 C 
ATOM      7  C   UNL     1      -3.403  -2.216  -1.322  1.00  0.00     0.010 C 
ATOM      8  C   UNL     1      -3.745  -3.355  -0.339  1.00  0.00     0.032 C 
ATOM      9  C   UNL     1      -2.510  -3.867   0.406  1.00  0.00     0.114 C 
ATOM     10  C   UNL     1      -1.823  -2.740   1.216  1.00  0.00     0.032 C 
ATOM     11  C   UNL     1      -2.184  -1.321   0.733  1.00  0.00     0.010 C 
ATOM     12  C   UNL     1      -2.720   0.252  -1.202  1.00  0.00     0.028 C 
ATOM     13  C   UNL     1      -1.540   1.194  -1.520  1.00  0.00     0.120 C 
ENDROOT
BRANCH   2  14
ATOM     14  C   UNL     1       1.712   1.583   0.479  1.00  0.00     0.042 A 
ATOM     15  C   UNL     1       2.647   1.447  -0.576  1.00  0.00     0.015 A 
ATOM     16  C   UNL     1       2.175   1.736   1.805  1.00  0.00     0.043 A 
ATOM     17  C   UNL     1       4.026   1.435  -0.314  1.00  0.00     0.022 A 
ATOM     18  C   UNL     1       3.549   1.722   2.049  1.00  0.00     0.082 A 
ATOM     19  C   UNL     1       4.444   1.571   1.005  1.00  0.00     0.054 A 
ATOM     20  N   UNL     1       4.111   1.849   3.279  1.00  0.00    -0.245 NA
ATOM     21  S   UNL     1       6.005   1.596   1.616  1.00  0.00    -0.122 S 
ATOM     22  C   UNL     1       5.464   1.799   3.208  1.00  0.00     0.176 A 
ENDBRANCH   2  14
BRANCH   9  23
ATOM     23  O   UNL     1      -2.893  -4.911   1.263  1.00  0.00    -0.393 OA
ATOM     24  H   UNL     1      -2.058  -5.373   1.541  1.00  0.00     0.210 HD
ENDBRANCH   9  23
TORSDOF 2
