REMARK SMILES OCC[C@@H]1CN(C[C@]23C[C@](c4nn[nH]n4)(CO2)C3)c2ccccc21
REMARK SMILES IDX 4 1 5 2 6 3 19 4 20 5 21 6 22 7 23 8 24 9 3 10 2 11 1 12
REMARK SMILES IDX 7 14 8 15 18 16 9 17 17 18 10 19 16 20 11 21 12 22 15 23
REMARK SMILES IDX 13 24 14 25
REMARK H PARENT 1 13 14 26
ROOT
ATOM      1  C   UNL     1      -1.620  -0.743   1.248  1.00  0.00     0.043 C 
ATOM      2  C   UNL     1      -0.164  -0.827   0.695  1.00  0.00     0.125 C 
ATOM      3  N   UNL     1       0.531   0.353   1.205  1.00  0.00    -0.368 N 
ATOM      4  C   UNL     1      -0.346   1.074   2.053  1.00  0.00     0.040 A 
ATOM      5  C   UNL     1      -0.063   2.243   2.768  1.00  0.00     0.026 A 
ATOM      6  C   UNL     1      -1.087   2.824   3.532  1.00  0.00     0.002 A 
ATOM      7  C   UNL     1      -2.365   2.236   3.566  1.00  0.00     0.000 A 
ATOM      8  C   UNL     1      -2.621   1.058   2.845  1.00  0.00     0.006 A 
ATOM      9  C   UNL     1      -1.581   0.484   2.108  1.00  0.00    -0.020 A 
ENDROOT
BRANCH   1  10
ATOM     10  C   UNL     1      -2.031  -1.992   2.058  1.00  0.00     0.038 C 
BRANCH  10  11
ATOM     11  C   UNL     1      -2.378  -3.186   1.163  1.00  0.00     0.156 C 
BRANCH  11  12
ATOM     12  O   UNL     1      -1.233  -3.668   0.517  1.00  0.00    -0.396 OA
ATOM     13  H   UNL     1      -1.534  -4.424  -0.050  1.00  0.00     0.210 HD
ENDBRANCH  11  12
ENDBRANCH  10  11
ENDBRANCH   1  10
BRANCH   3  14
ATOM     14  C   UNL     1       1.913   0.701   0.881  1.00  0.00     0.152 C 
BRANCH  14  15
ATOM     15  C   UNL     1       1.955   1.775  -0.207  1.00  0.00     0.088 C 
ATOM     16  C   UNL     1       1.428   1.442  -1.596  1.00  0.00     0.055 C 
ATOM     17  C   UNL     1       3.301   2.149  -0.810  1.00  0.00     0.055 C 
ATOM     18  O   UNL     1       1.358   3.024   0.100  1.00  0.00    -0.372 OA
ATOM     19  C   UNL     1       2.343   2.614  -1.889  1.00  0.00     0.063 C 
ATOM     20  C   UNL     1       1.612   3.704  -1.125  1.00  0.00     0.176 C 
BRANCH  19  21
ATOM     21  C   UNL     1       2.835   2.856  -3.280  1.00  0.00     0.183 A 
ATOM     22  N   UNL     1       4.037   3.387  -3.577  1.00  0.00    -0.113 NA
ATOM     23  N   UNL     1       2.099   2.654  -4.388  1.00  0.00    -0.139 NA
ATOM     24  N   UNL     1       4.041   3.493  -4.896  1.00  0.00    -0.050 NA
ATOM     25  N   UNL     1       2.888   3.055  -5.370  1.00  0.00    -0.177 N 
ATOM     26  H   UNL     1       2.632   3.035  -6.381  1.00  0.00     0.216 HD
ENDBRANCH  19  21
ENDBRANCH  14  15
ENDBRANCH   3  14
TORSDOF 6
