REMARK SMILES O=C(C[C@@H]1C[C@H]2CC[C@@H](C1)N2)Nc1ccc(OCc2cccnc2)c(Cl)c1
REMARK SMILES IDX 13 1 14 2 15 3 16 4 25 5 26 6 27 7 12 8 1 9 2 10 3 12 4 13
REMARK SMILES IDX 10 14 5 15 9 16 6 17 8 18 11 19 7 20 17 22 18 23 19 24 20 25
REMARK SMILES IDX 24 26 21 27 23 28 22 29
REMARK H PARENT 12 11 11 21
ROOT
ATOM      1  C   UNL     1      -1.157  -0.080  -0.276  1.00  0.00     0.042 A 
ATOM      2  C   UNL     1      -1.993  -0.114   0.852  1.00  0.00     0.030 A 
ATOM      3  C   UNL     1      -2.543  -1.323   1.288  1.00  0.00     0.050 A 
ATOM      4  C   UNL     1      -2.277  -2.518   0.594  1.00  0.00     0.138 A 
ATOM      5  C   UNL     1      -1.459  -2.478  -0.546  1.00  0.00     0.085 A 
ATOM      6  Cl  UNL     1      -1.113  -3.948  -1.445  1.00  0.00    -0.080 Cl
ATOM      7  C   UNL     1      -0.911  -1.266  -0.980  1.00  0.00     0.050 A 
ENDROOT
BRANCH   1   8
ATOM      8  N   UNL     1      -0.597   1.154  -0.758  1.00  0.00    -0.326 N 
ATOM      9  O   UNL     1      -0.064   2.054   1.342  1.00  0.00    -0.275 OA
ATOM     10  C   UNL     1      -0.146   2.219   0.094  1.00  0.00     0.224 C 
ATOM     11  H   UNL     1      -0.412   1.238  -1.783  1.00  0.00     0.169 HD
BRANCH  10  12
ATOM     12  C   UNL     1       0.316   3.517  -0.504  1.00  0.00     0.104 C 
BRANCH  12  13
ATOM     13  C   UNL     1       1.851   3.571  -0.629  1.00  0.00     0.001 C 
ATOM     14  C   UNL     1       2.391   2.491  -1.615  1.00  0.00     0.023 C 
ATOM     15  C   UNL     1       2.314   5.003  -1.027  1.00  0.00     0.023 C 
ATOM     16  C   UNL     1       3.833   2.805  -2.075  1.00  0.00     0.054 C 
ATOM     17  C   UNL     1       3.766   5.010  -1.559  1.00  0.00     0.054 C 
ATOM     18  C   UNL     1       4.794   2.935  -0.886  1.00  0.00     0.020 C 
ATOM     19  N   UNL     1       3.813   4.117  -2.712  1.00  0.00    -0.311 NA
ATOM     20  C   UNL     1       4.750   4.421  -0.538  1.00  0.00     0.020 C 
ATOM     21  H   UNL     1       4.724   4.262  -3.212  1.00  0.00     0.123 HD
ENDBRANCH  12  13
ENDBRANCH  10  12
ENDBRANCH   1   8
BRANCH   4  22
ATOM     22  O   UNL     1      -2.806  -3.753   1.001  1.00  0.00    -0.487 OA
BRANCH  22  23
ATOM     23  C   UNL     1      -3.646  -3.938   2.137  1.00  0.00     0.267 C 
BRANCH  23  24
ATOM     24  C   UNL     1      -4.001  -5.391   2.253  1.00  0.00     0.008 A 
ATOM     25  C   UNL     1      -3.168  -6.275   2.954  1.00  0.00     0.010 A 
ATOM     26  C   UNL     1      -5.135  -5.903   1.604  1.00  0.00     0.118 A 
ATOM     27  C   UNL     1      -3.490  -7.632   3.020  1.00  0.00     0.020 A 
ATOM     28  N   UNL     1      -5.426  -7.229   1.683  1.00  0.00    -0.264 NA
ATOM     29  C   UNL     1      -4.638  -8.095   2.374  1.00  0.00     0.111 A 
ENDBRANCH  23  24
ENDBRANCH  22  23
ENDBRANCH   4  22
TORSDOF 6
