REMARK SMILES OCC[C@@H]1CN(C[C@]23C[C@](c4nn[nH]n4)(CO2)C3)c2ccccc21
REMARK SMILES IDX 4 1 5 2 6 3 19 4 20 5 21 6 22 7 23 8 24 9 3 10 2 11 1 12
REMARK SMILES IDX 7 14 8 15 18 16 9 17 17 18 10 19 16 20 11 21 12 22 15 23
REMARK SMILES IDX 13 24 14 25
REMARK H PARENT 1 13 14 26
ROOT
ATOM      1  C   UNL     1       2.129   0.494   2.783  1.00  0.00     0.043 C 
ATOM      2  C   UNL     1       1.312  -0.736   2.292  1.00  0.00     0.125 C 
ATOM      3  N   UNL     1       1.227  -0.606   0.836  1.00  0.00    -0.368 N 
ATOM      4  C   UNL     1       1.847   0.610   0.447  1.00  0.00     0.040 A 
ATOM      5  C   UNL     1       1.972   1.123  -0.849  1.00  0.00     0.026 A 
ATOM      6  C   UNL     1       2.616   2.359  -1.020  1.00  0.00     0.002 A 
ATOM      7  C   UNL     1       3.123   3.054   0.095  1.00  0.00     0.000 A 
ATOM      8  C   UNL     1       2.997   2.511   1.383  1.00  0.00     0.006 A 
ATOM      9  C   UNL     1       2.359   1.276   1.528  1.00  0.00    -0.020 A 
ENDROOT
BRANCH   1  10
ATOM     10  C   UNL     1       3.443   0.111   3.500  1.00  0.00     0.038 C 
BRANCH  10  11
ATOM     11  C   UNL     1       4.482  -0.573   2.600  1.00  0.00     0.156 C 
BRANCH  11  12
ATOM     12  O   UNL     1       5.597  -0.929   3.368  1.00  0.00    -0.396 OA
ATOM     13  H   UNL     1       6.237  -1.360   2.743  1.00  0.00     0.210 HD
ENDBRANCH  11  12
ENDBRANCH  10  11
ENDBRANCH   1  10
BRANCH   3  14
ATOM     14  C   UNL     1       0.473  -1.516  -0.027  1.00  0.00     0.152 C 
BRANCH  14  15
ATOM     15  C   UNL     1      -0.982  -1.059  -0.162  1.00  0.00     0.088 C 
ATOM     16  C   UNL     1      -1.899  -1.838  -1.093  1.00  0.00     0.055 C 
ATOM     17  C   UNL     1      -1.310   0.222  -0.917  1.00  0.00     0.055 C 
ATOM     18  O   UNL     1      -1.725  -0.954   1.040  1.00  0.00    -0.372 OA
ATOM     19  C   UNL     1      -2.631  -0.517  -0.981  1.00  0.00     0.063 C 
ATOM     20  C   UNL     1      -2.976  -0.546   0.500  1.00  0.00     0.176 C 
BRANCH  19  21
ATOM     21  C   UNL     1      -3.660  -0.151  -2.004  1.00  0.00     0.183 A 
ATOM     22  N   UNL     1      -4.953  -0.525  -1.942  1.00  0.00    -0.113 NA
ATOM     23  N   UNL     1      -3.398   0.522  -3.140  1.00  0.00    -0.139 NA
ATOM     24  N   UNL     1      -5.494  -0.055  -3.054  1.00  0.00    -0.050 NA
ATOM     25  N   UNL     1      -4.564   0.566  -3.759  1.00  0.00    -0.177 N 
ATOM     26  H   UNL     1      -4.728   1.024  -4.683  1.00  0.00     0.216 HD
ENDBRANCH  19  21
ENDBRANCH  14  15
ENDBRANCH   3  14
TORSDOF 6
