REMARK SMILES CC(C)(O)CONC(=O)c1cc(C2CC2)nc2onc(-c3ccccc3)c12
REMARK SMILES IDX 5 1 2 2 1 3 3 4 4 5 6 7 7 8 8 9 9 10 10 12 11 13 27 14 12 15
REMARK SMILES IDX 20 16 17 17 16 18 19 19 18 20 13 21 14 22 15 23 21 24 22 25
REMARK SMILES IDX 26 26 23 27 25 28 24 29
REMARK H PARENT 4 6 7 11
ROOT
ATOM      1  C   UNL     1      -1.092  -1.081   2.490  1.00  0.00     0.228 C 
ENDROOT
BRANCH   1   2
ATOM      2  C   UNL     1      -1.363  -1.492   3.952  1.00  0.00     0.085 C 
ATOM      3  C   UNL     1      -1.979  -2.902   4.017  1.00  0.00     0.044 C 
ATOM      4  C   UNL     1      -2.342  -0.488   4.578  1.00  0.00     0.044 C 
BRANCH   2   5
ATOM      5  O   UNL     1      -0.167  -1.452   4.696  1.00  0.00    -0.388 OA
ATOM      6  H   UNL     1       0.446  -2.143   4.334  1.00  0.00     0.211 HD
ENDBRANCH   2   5
ENDBRANCH   1   2
BRANCH   1   7
ATOM      7  O   UNL     1      -0.196  -1.979   1.879  1.00  0.00    -0.270 OA
BRANCH   7   8
ATOM      8  N   UNL     1      -0.115  -1.621   0.570  1.00  0.00    -0.231 N 
ATOM      9  C   UNL     1       0.973  -0.819   0.098  1.00  0.00     0.275 C 
ATOM     10  O   UNL     1       1.810  -0.360   0.918  1.00  0.00    -0.267 OA
ATOM     11  H   UNL     1      -0.775  -2.056  -0.115  1.00  0.00     0.199 HD
BRANCH   9  12
ATOM     12  C   UNL     1       1.186  -0.617  -1.348  1.00  0.00     0.058 A 
ATOM     13  C   UNL     1       2.460  -0.857  -1.904  1.00  0.00     0.039 A 
ATOM     14  C   UNL     1       0.150  -0.323  -2.248  1.00  0.00     0.082 A 
ATOM     15  C   UNL     1       2.637  -0.866  -3.309  1.00  0.00     0.048 A 
ATOM     16  C   UNL     1      -1.188   0.041  -2.144  1.00  0.00     0.124 A 
ATOM     17  C   UNL     1       0.364  -0.360  -3.595  1.00  0.00     0.259 A 
ATOM     18  N   UNL     1       1.578  -0.616  -4.137  1.00  0.00    -0.215 NA
ATOM     19  N   UNL     1      -1.698   0.161  -3.395  1.00  0.00    -0.076 NA
ATOM     20  O   UNL     1      -0.739  -0.090  -4.242  1.00  0.00    -0.335 OA
BRANCH  15  21
ATOM     21  C   UNL     1       3.996  -1.099  -3.898  1.00  0.00     0.038 C 
ATOM     22  C   UNL     1       4.606  -2.459  -3.594  1.00  0.00     0.010 C 
ATOM     23  C   UNL     1       4.049  -2.170  -4.976  1.00  0.00     0.010 C 
ENDBRANCH  15  21
BRANCH  16  24
ATOM     24  C   UNL     1      -1.929   0.472  -0.946  1.00  0.00     0.004 A 
ATOM     25  C   UNL     1      -1.365   1.397  -0.050  1.00  0.00     0.010 A 
ATOM     26  C   UNL     1      -3.256   0.054  -0.757  1.00  0.00     0.010 A 
ATOM     27  C   UNL     1      -2.111   1.877   1.031  1.00  0.00     0.001 A 
ATOM     28  C   UNL     1      -3.995   0.527   0.333  1.00  0.00     0.001 A 
ATOM     29  C   UNL     1      -3.423   1.437   1.226  1.00  0.00     0.000 A 
ENDBRANCH  16  24
ENDBRANCH   9  12
ENDBRANCH   7   8
ENDBRANCH   1   7
TORSDOF 7
