REMARK SMILES Cc1ccc(C)c(S(=O)(=O)Nc2ccc(-c3cnc(C)o3)cc2)c1
REMARK SMILES IDX 11 1 12 3 15 4 14 5 22 6 13 7 23 8 16 9 19 10 18 11 21 12
REMARK SMILES IDX 17 13 20 14 8 15 9 16 10 17 7 18 24 19 5 20 2 21 4 22 3 23
REMARK SMILES IDX 6 24 1 25
REMARK H PARENT 11 2
ROOT
ATOM      1  N   UNL     1      -0.137   2.299  -1.537  1.00  0.00    -0.280 N 
ATOM      2  H   UNL     1      -0.492   3.282  -1.531  1.00  0.00     0.180 HD
ENDROOT
BRANCH   1   3
ATOM      3  C   UNL     1      -0.748   1.331  -0.665  1.00  0.00     0.049 A 
ATOM      4  C   UNL     1      -1.974  -0.511   1.094  1.00  0.00     0.019 A 
ATOM      5  C   UNL     1      -2.417   0.820   1.030  1.00  0.00     0.014 A 
ATOM      6  C   UNL     1      -0.911  -0.913   0.268  1.00  0.00     0.014 A 
ATOM      7  C   UNL     1      -1.809   1.730   0.161  1.00  0.00     0.027 A 
ATOM      8  C   UNL     1      -0.304  -0.003  -0.603  1.00  0.00     0.027 A 
BRANCH   4   9
ATOM      9  C   UNL     1      -2.631  -1.456   2.024  1.00  0.00     0.154 A 
ATOM     10  C   UNL     1      -3.940  -2.224   3.490  1.00  0.00     0.191 A 
ATOM     11  N   UNL     1      -3.177  -3.286   3.159  1.00  0.00    -0.222 NA
ATOM     12  O   UNL     1      -3.625  -1.140   2.818  1.00  0.00    -0.441 OA
ATOM     13  C   UNL     1      -2.341  -2.793   2.226  1.00  0.00     0.162 A 
ATOM     14  C   UNL     1      -5.047  -2.285   4.486  1.00  0.00     0.111 C 
ENDBRANCH   4   9
ENDBRANCH   1   3
BRANCH   1  15
ATOM     15  S   UNL     1       1.173   1.947  -2.622  1.00  0.00     0.262 S 
ATOM     16  O   UNL     1       1.474   3.178  -3.430  1.00  0.00    -0.201 OA
ATOM     17  O   UNL     1       0.741   0.845  -3.550  1.00  0.00    -0.201 OA
BRANCH  15  18
ATOM     18  C   UNL     1       2.629   1.485  -1.723  1.00  0.00     0.090 A 
ATOM     19  C   UNL     1       2.698   1.784  -0.352  1.00  0.00     0.026 A 
ATOM     20  C   UNL     1       3.728   0.846  -2.350  1.00  0.00    -0.031 A 
ATOM     21  C   UNL     1       3.812   1.410   0.411  1.00  0.00    -0.050 A 
ATOM     22  C   UNL     1       4.843   0.483  -1.577  1.00  0.00     0.005 A 
ATOM     23  C   UNL     1       4.888   0.767  -0.211  1.00  0.00     0.004 A 
ATOM     24  C   UNL     1       3.724   0.515  -3.818  1.00  0.00     0.046 C 
ATOM     25  C   UNL     1       3.878   1.757   1.869  1.00  0.00     0.044 C 
ENDBRANCH  15  18
ENDBRANCH   1  15
TORSDOF 4
