REMARK SMILES O=c1ccc(-c2nnco2)cn1Cc1ncnn1-c1ccccc1
REMARK SMILES IDX 13 1 12 2 1 3 2 4 3 5 4 6 11 7 5 8 6 9 7 10 10 11 8 12 9 13
REMARK SMILES IDX 14 14 15 15 18 16 16 17 17 18 19 19 20 20 24 21 21 22 23 23
REMARK SMILES IDX 22 24
REMARK H PARENT
ROOT
ATOM      1  C   UNL     1       1.802  -2.314  -1.489  1.00  0.00     0.202 C 
ENDROOT
BRANCH   1   2
ATOM      2  N   UNL     1       0.367  -2.333  -1.820  1.00  0.00    -0.307 N 
ATOM      3  O   UNL     1       0.181  -4.556  -1.301  1.00  0.00    -0.269 OA
ATOM      4  C   UNL     1      -0.369  -3.483  -1.672  1.00  0.00     0.250 A 
ATOM      5  C   UNL     1      -1.744  -3.479  -1.925  1.00  0.00     0.072 A 
ATOM      6  C   UNL     1      -2.369  -2.299  -2.320  1.00  0.00     0.021 A 
ATOM      7  C   UNL     1      -0.237  -1.178  -2.242  1.00  0.00     0.103 A 
ATOM      8  C   UNL     1      -1.618  -1.130  -2.479  1.00  0.00     0.055 A 
BRANCH   8   9
ATOM      9  C   UNL     1      -2.263   0.140  -2.865  1.00  0.00     0.248 A 
ATOM     10  N   UNL     1      -3.579   0.285  -3.112  1.00  0.00    -0.108 NA
ATOM     11  O   UNL     1      -1.630   1.282  -3.002  1.00  0.00    -0.423 OA
ATOM     12  N   UNL     1      -3.761   1.562  -3.411  1.00  0.00    -0.116 NA
ATOM     13  C   UNL     1      -2.553   2.150  -3.336  1.00  0.00     0.333 A 
ENDBRANCH   8   9
ENDBRANCH   1   2
BRANCH   1  14
ATOM     14  C   UNL     1       2.000  -2.403   0.001  1.00  0.00     0.152 A 
ATOM     15  N   UNL     1       2.521  -3.487   0.608  1.00  0.00    -0.218 NA
ATOM     16  N   UNL     1       1.562  -1.502   0.903  1.00  0.00    -0.216 N 
ATOM     17  C   UNL     1       2.377  -3.184   1.917  1.00  0.00     0.246 A 
ATOM     18  N   UNL     1       1.786  -1.989   2.109  1.00  0.00    -0.154 NA
BRANCH  16  19
ATOM     19  C   UNL     1       0.902  -0.254   0.659  1.00  0.00     0.067 A 
ATOM     20  C   UNL     1       1.539   0.755  -0.080  1.00  0.00     0.028 A 
ATOM     21  C   UNL     1      -0.391  -0.037   1.156  1.00  0.00     0.028 A 
ATOM     22  C   UNL     1       0.875   1.957  -0.344  1.00  0.00     0.002 A 
ATOM     23  C   UNL     1      -1.054   1.164   0.886  1.00  0.00     0.002 A 
ATOM     24  C   UNL     1      -0.424   2.159   0.133  1.00  0.00     0.000 A 
ENDBRANCH  16  19
ENDBRANCH   1  14
TORSDOF 4
