REMARK SMILES O=C(Nc1ccc(-n2cccn2)nc1)[C@H]1C[C@H]1C1CCCC1
REMARK SMILES IDX 1 1 2 2 3 3 15 5 16 6 17 7 18 8 19 9 22 10 20 11 21 12 4 13
REMARK SMILES IDX 5 14 14 15 6 16 13 17 7 18 8 19 9 20 12 21 10 22 11 23
REMARK H PARENT 3 4
ROOT
ATOM      1  O   UNL     1      -0.588   1.496   1.681  1.00  0.00    -0.274 OA
ATOM      2  C   UNL     1      -1.228   0.410   1.686  1.00  0.00     0.227 C 
ATOM      3  N   UNL     1      -1.665  -0.183   0.450  1.00  0.00    -0.324 N 
ATOM      4  H   UNL     1      -2.143  -1.111   0.487  1.00  0.00     0.169 HD
ENDROOT
BRANCH   2   5
ATOM      5  C   UNL     1      -1.601  -0.211   3.007  1.00  0.00     0.082 C 
ATOM      6  C   UNL     1      -1.382  -1.718   3.086  1.00  0.00     0.018 C 
ATOM      7  C   UNL     1      -0.495  -0.786   3.911  1.00  0.00     0.005 C 
BRANCH   7   8
ATOM      8  C   UNL     1       0.987  -0.563   3.491  1.00  0.00    -0.007 C 
ATOM      9  C   UNL     1       1.567  -1.550   2.481  1.00  0.00     0.004 C 
ATOM     10  C   UNL     1       1.922  -0.691   4.689  1.00  0.00     0.004 C 
ATOM     11  C   UNL     1       3.074  -1.468   2.671  1.00  0.00     0.000 C 
ATOM     12  C   UNL     1       3.299  -1.003   4.109  1.00  0.00     0.000 C 
ENDBRANCH   7   8
ENDBRANCH   2   5
BRANCH   3  13
ATOM     13  C   UNL     1      -1.357   0.349  -0.848  1.00  0.00     0.059 A 
ATOM     14  C   UNL     1      -1.052  -0.525  -1.899  1.00  0.00     0.031 A 
ATOM     15  C   UNL     1      -1.412   1.726  -1.116  1.00  0.00     0.139 A 
ATOM     16  C   UNL     1      -0.770  -0.024  -3.171  1.00  0.00     0.051 A 
ATOM     17  N   UNL     1      -1.139   2.191  -2.364  1.00  0.00    -0.235 NA
ATOM     18  C   UNL     1      -0.812   1.361  -3.393  1.00  0.00     0.153 A 
BRANCH  18  19
ATOM     19  N   UNL     1      -0.527   1.907  -4.692  1.00  0.00    -0.223 N 
ATOM     20  C   UNL     1      -0.541   3.213  -5.022  1.00  0.00     0.117 A 
ATOM     21  N   UNL     1      -0.206   1.183  -5.753  1.00  0.00    -0.175 NA
ATOM     22  C   UNL     1      -0.214   3.328  -6.356  1.00  0.00     0.042 A 
ATOM     23  C   UNL     1      -0.010   2.030  -6.781  1.00  0.00     0.135 A 
ENDBRANCH  18  19
ENDBRANCH   3  13
TORSDOF 4
