REMARK SMILES C[C@H]1CC[C@@]2(CCN(C(=O)c3ccc(-c4nn[nH]n4)o3)C2)CC1
REMARK SMILES IDX 11 1 12 2 13 3 14 4 20 5 9 6 10 7 8 8 2 9 3 10 23 11 4 12
REMARK SMILES IDX 22 13 5 14 6 15 21 16 7 17 1 18 15 19 16 20 19 21 17 22
REMARK SMILES IDX 18 23
REMARK H PARENT 18 24
ROOT
ATOM      1  C   UNL     1       2.465  -0.678  -3.010  1.00  0.00     0.192 A 
ATOM      2  C   UNL     1       3.626  -1.072  -3.652  1.00  0.00     0.057 A 
ATOM      3  C   UNL     1       3.287  -2.174  -4.408  1.00  0.00     0.055 A 
ATOM      4  C   UNL     1       1.940  -2.380  -4.181  1.00  0.00     0.176 A 
ATOM      5  O   UNL     1       1.479  -1.477  -3.349  1.00  0.00    -0.447 OA
ENDROOT
BRANCH   1   6
ATOM      6  C   UNL     1       2.341   0.472  -2.092  1.00  0.00     0.289 C 
ATOM      7  O   UNL     1       3.340   1.225  -1.927  1.00  0.00    -0.265 OA
BRANCH   6   8
ATOM      8  N   UNL     1       1.117   0.764  -1.390  1.00  0.00    -0.335 N 
ATOM      9  C   UNL     1      -3.008  -0.992   1.522  1.00  0.00    -0.014 C 
ATOM     10  C   UNL     1      -1.509  -1.390   1.446  1.00  0.00     0.004 C 
ATOM     11  C   UNL     1      -3.343   0.244   0.648  1.00  0.00     0.004 C 
ATOM     12  C   UNL     1      -0.615  -0.178   1.159  1.00  0.00     0.009 C 
ATOM     13  C   UNL     1      -2.454   0.296  -0.599  1.00  0.00     0.009 C 
ATOM     14  C   UNL     1      -0.948   0.478  -0.226  1.00  0.00    -0.010 C 
ATOM     15  C   UNL     1      -0.536   1.968  -0.202  1.00  0.00     0.030 C 
ATOM     16  C   UNL     1      -0.042  -0.114  -1.325  1.00  0.00     0.127 C 
ATOM     17  C   UNL     1       0.926   1.986  -0.628  1.00  0.00     0.120 C 
ATOM     18  C   UNL     1      -3.448  -0.753   2.972  1.00  0.00     0.007 C 
ENDBRANCH   6   8
ENDBRANCH   1   6
BRANCH   4  19
ATOM     19  C   UNL     1       1.121  -3.444  -4.768  1.00  0.00     0.239 A 
ATOM     20  N   UNL     1       1.581  -4.378  -5.623  1.00  0.00    -0.105 NA
ATOM     21  N   UNL     1      -0.191  -3.609  -4.516  1.00  0.00    -0.130 NA
ATOM     22  N   UNL     1       0.527  -5.129  -5.899  1.00  0.00    -0.050 NA
ATOM     23  N   UNL     1      -0.520  -4.666  -5.239  1.00  0.00    -0.177 N 
ATOM     24  H   UNL     1      -1.478  -5.079  -5.282  1.00  0.00     0.216 HD
ENDBRANCH   4  19
TORSDOF 3
