REMARK SMILES O=C1CC[C@H](c2cccc(NC(=O)c3ccc(Oc4ccccc4)cn3)c2)N1
REMARK SMILES IDX 13 1 12 2 11 3 14 5 15 6 26 7 16 8 25 9 17 10 18 11 19 12
REMARK SMILES IDX 20 13 24 14 21 15 23 16 22 17 10 18 9 19 27 20 8 21 6 22
REMARK SMILES IDX 7 23 5 24 4 25 28 26 3 27 2 28 1 29
REMARK H PARENT 11 4 28 30
ROOT
ATOM      1  O   UNL     1      -1.112   0.621   2.696  1.00  0.00    -0.267 OA
ATOM      2  C   UNL     1      -1.116  -0.126   1.680  1.00  0.00     0.274 C 
ATOM      3  N   UNL     1       0.117  -0.426   1.004  1.00  0.00    -0.321 N 
ATOM      4  H   UNL     1       0.158  -1.285   0.410  1.00  0.00     0.170 HD
ENDROOT
BRANCH   2   5
ATOM      5  C   UNL     1      -2.387  -0.719   1.210  1.00  0.00     0.128 A 
ATOM      6  C   UNL     1      -3.587  -0.514   1.910  1.00  0.00     0.038 A 
ATOM      7  N   UNL     1      -2.399  -1.478   0.079  1.00  0.00    -0.247 NA
ATOM      8  C   UNL     1      -4.768  -1.086   1.434  1.00  0.00     0.051 A 
ATOM      9  C   UNL     1      -3.538  -2.040  -0.405  1.00  0.00     0.159 A 
ATOM     10  C   UNL     1      -4.759  -1.843   0.259  1.00  0.00     0.145 A 
BRANCH  10  11
ATOM     11  O   UNL     1      -5.957  -2.418  -0.189  1.00  0.00    -0.456 OA
BRANCH  11  12
ATOM     12  C   UNL     1      -6.278  -2.687  -1.528  1.00  0.00     0.127 A 
ATOM     13  C   UNL     1      -7.124  -3.766  -1.815  1.00  0.00     0.047 A 
ATOM     14  C   UNL     1      -5.814  -1.876  -2.582  1.00  0.00     0.047 A 
ATOM     15  C   UNL     1      -7.479  -4.055  -3.136  1.00  0.00     0.004 A 
ATOM     16  C   UNL     1      -6.172  -2.167  -3.903  1.00  0.00     0.004 A 
ATOM     17  C   UNL     1      -7.002  -3.257  -4.180  1.00  0.00     0.000 A 
ENDBRANCH  11  12
ENDBRANCH  10  11
ENDBRANCH   2   5
BRANCH   3  18
ATOM     18  C   UNL     1       1.333   0.321   1.182  1.00  0.00     0.041 A 
ATOM     19  C   UNL     1       1.313   1.709   1.406  1.00  0.00     0.026 A 
ATOM     20  C   UNL     1       2.568  -0.336   1.063  1.00  0.00     0.032 A 
ATOM     21  C   UNL     1       2.509   2.418   1.538  1.00  0.00     0.003 A 
ATOM     22  C   UNL     1       3.775   0.369   1.206  1.00  0.00    -0.024 A 
ATOM     23  C   UNL     1       3.734   1.755   1.439  1.00  0.00     0.006 A 
BRANCH  22  24
ATOM     24  C   UNL     1       5.097  -0.353   1.065  1.00  0.00     0.113 C 
ATOM     25  C   UNL     1       5.850   0.059  -0.227  1.00  0.00     0.040 C 
ATOM     26  N   UNL     1       5.980  -0.017   2.167  1.00  0.00    -0.349 N 
ATOM     27  C   UNL     1       7.176   0.708   0.204  1.00  0.00     0.102 C 
ATOM     28  C   UNL     1       7.162   0.573   1.673  1.00  0.00     0.220 C 
ATOM     29  O   UNL     1       8.100   0.949   2.424  1.00  0.00    -0.275 OA
ATOM     30  H   UNL     1       5.783  -0.208   3.175  1.00  0.00     0.164 HD
ENDBRANCH  22  24
ENDBRANCH   3  18
TORSDOF 5
