REMARK SMILES Cc1ccc(SCC(=O)N2CCC3(CC2)C[C@H](O)CCO3)cc1
REMARK SMILES IDX 7 1 6 2 5 3 2 4 3 5 23 6 4 7 22 8 1 9 8 10 9 11 10 12 11 13
REMARK SMILES IDX 15 14 12 15 14 16 13 17 16 18 21 19 17 20 20 21 19 22 18 23
REMARK H PARENT 18 24
ROOT
ATOM      1  C   UNL     1      -1.250  -0.538  -4.105  1.00  0.00     0.175 C 
ENDROOT
BRANCH   1   2
ATOM      2  S   UNL     1      -2.039  -2.170  -3.862  1.00  0.00    -0.116 SA
BRANCH   2   3
ATOM      3  C   UNL     1      -2.365  -1.946  -2.112  1.00  0.00     0.008 A 
ATOM      4  C   UNL     1      -2.857  -1.568   0.626  1.00  0.00    -0.051 A 
ATOM      5  C   UNL     1      -3.792  -1.136  -0.327  1.00  0.00     0.004 A 
ATOM      6  C   UNL     1      -1.672  -2.187   0.199  1.00  0.00     0.004 A 
ATOM      7  C   UNL     1      -3.553  -1.337  -1.690  1.00  0.00     0.015 A 
ATOM      8  C   UNL     1      -1.431  -2.380  -1.164  1.00  0.00     0.015 A 
ATOM      9  C   UNL     1      -3.087  -1.301   2.084  1.00  0.00     0.044 C 
ENDBRANCH   2   3
ENDBRANCH   1   2
BRANCH   1  10
ATOM     10  C   UNL     1       0.079  -0.466  -3.398  1.00  0.00     0.232 C 
ATOM     11  O   UNL     1       0.985  -1.257  -3.779  1.00  0.00    -0.274 OA
ATOM     12  N   UNL     1       0.365   0.484  -2.343  1.00  0.00    -0.342 N 
ATOM     13  C   UNL     1      -0.703   1.248  -1.672  1.00  0.00     0.122 C 
ATOM     14  C   UNL     1       1.776   0.845  -2.124  1.00  0.00     0.122 C 
ATOM     15  C   UNL     1      -0.410   1.532  -0.180  1.00  0.00     0.057 C 
ATOM     16  C   UNL     1       1.954   1.805  -0.944  1.00  0.00     0.057 C 
ATOM     17  C   UNL     1       1.078   1.367   0.251  1.00  0.00     0.074 C 
ATOM     18  C   UNL     1       1.393   2.290   1.480  1.00  0.00     0.067 C 
ATOM     19  O   UNL     1       1.359  -0.012   0.517  1.00  0.00    -0.375 OA
ATOM     20  C   UNL     1       2.423   1.664   2.434  1.00  0.00     0.119 C 
ATOM     21  C   UNL     1       1.040  -0.396   1.843  1.00  0.00     0.163 C 
ATOM     22  C   UNL     1       2.002   0.239   2.856  1.00  0.00     0.060 C 
BRANCH  20  23
ATOM     23  O   UNL     1       3.712   1.687   1.870  1.00  0.00    -0.393 OA
ATOM     24  H   UNL     1       3.799   0.913   1.255  1.00  0.00     0.210 HD
ENDBRANCH  20  23
ENDBRANCH   1  10
TORSDOF 4
