REMARK SMILES CC1(Cn2cc(C(=O)N[C@@H]3C[C@H]3c3cccc(F)c3)nn2)COC1
REMARK SMILES IDX 4 1 5 2 6 3 20 4 21 5 3 6 2 7 22 8 24 9 23 10 1 11 7 12 8 13
REMARK SMILES IDX 9 14 10 16 11 17 12 18 13 19 14 20 19 21 15 22 17 23 16 24
REMARK SMILES IDX 18 25
REMARK H PARENT 9 15
ROOT
ATOM      1  N   UNL     1      -0.819  -4.282  -0.458  1.00  0.00    -0.251 N 
ATOM      2  C   UNL     1      -0.397  -3.027  -0.685  1.00  0.00     0.145 A 
ATOM      3  C   UNL     1      -0.112  -2.491   0.555  1.00  0.00     0.170 A 
ATOM      4  N   UNL     1      -0.372  -3.428   1.490  1.00  0.00    -0.125 NA
ATOM      5  N   UNL     1      -0.801  -4.504   0.847  1.00  0.00    -0.067 NA
ENDROOT
BRANCH   1   6
ATOM      6  C   UNL     1      -1.274  -5.249  -1.453  1.00  0.00     0.157 C 
BRANCH   6   7
ATOM      7  C   UNL     1      -2.777  -5.071  -1.763  1.00  0.00     0.034 C 
ATOM      8  C   UNL     1      -3.250  -5.896  -2.948  1.00  0.00     0.171 C 
ATOM      9  C   UNL     1      -3.104  -3.904  -2.679  1.00  0.00     0.171 C 
ATOM     10  O   UNL     1      -3.530  -4.752  -3.720  1.00  0.00    -0.380 OA
ATOM     11  C   UNL     1      -3.700  -5.181  -0.537  1.00  0.00     0.018 C 
ENDBRANCH   6   7
ENDBRANCH   1   6
BRANCH   3  12
ATOM     12  C   UNL     1       0.378  -1.137   0.860  1.00  0.00     0.273 C 
ATOM     13  O   UNL     1       0.549  -0.805   2.064  1.00  0.00    -0.267 OA
ATOM     14  N   UNL     1       0.660  -0.196  -0.186  1.00  0.00    -0.347 N 
ATOM     15  H   UNL     1       0.612  -0.495  -1.185  1.00  0.00     0.164 HD
BRANCH  14  16
ATOM     16  C   UNL     1       1.154   1.145   0.111  1.00  0.00     0.090 C 
ATOM     17  C   UNL     1       0.058   2.085   0.606  1.00  0.00     0.036 C 
ATOM     18  C   UNL     1       0.599   2.222  -0.814  1.00  0.00     0.044 C 
BRANCH  18  19
ATOM     19  C   UNL     1       1.486   3.423  -1.091  1.00  0.00    -0.040 A 
ATOM     20  C   UNL     1       2.428   3.930  -0.168  1.00  0.00     0.004 A 
ATOM     21  C   UNL     1       1.357   4.059  -2.339  1.00  0.00     0.043 A 
ATOM     22  C   UNL     1       3.212   5.040  -0.495  1.00  0.00     0.003 A 
ATOM     23  C   UNL     1       2.144   5.169  -2.660  1.00  0.00     0.123 A 
ATOM     24  C   UNL     1       3.072   5.659  -1.738  1.00  0.00     0.039 A 
ATOM     25  F   UNL     1       2.008   5.770  -3.867  1.00  0.00    -0.207 F 
ENDBRANCH  18  19
ENDBRANCH  14  16
ENDBRANCH   3  12
TORSDOF 5
