REMARK SMILES OCC[C@H]1CN(C[C@]23C[C@](c4nn[nH]n4)(CO2)C3)c2ccccc21
REMARK SMILES IDX 4 1 5 2 6 3 19 4 20 5 21 6 22 7 23 8 24 9 3 10 2 11 1 12
REMARK SMILES IDX 7 14 8 15 9 16 18 17 17 18 10 19 16 20 11 21 12 22 15 23
REMARK SMILES IDX 13 24 14 25
REMARK H PARENT 1 13 14 26
ROOT
ATOM      1  C   UNL     1       1.734   1.455   1.966  1.00  0.00     0.043 C 
ATOM      2  C   UNL     1       1.962   1.668   0.440  1.00  0.00     0.125 C 
ATOM      3  N   UNL     1       0.641   1.588  -0.179  1.00  0.00    -0.368 N 
ATOM      4  C   UNL     1      -0.341   1.548   0.843  1.00  0.00     0.040 A 
ATOM      5  C   UNL     1      -1.727   1.660   0.687  1.00  0.00     0.026 A 
ATOM      6  C   UNL     1      -2.527   1.718   1.838  1.00  0.00     0.002 A 
ATOM      7  C   UNL     1      -1.934   1.699   3.114  1.00  0.00     0.000 A 
ATOM      8  C   UNL     1      -0.539   1.609   3.243  1.00  0.00     0.006 A 
ATOM      9  C   UNL     1       0.238   1.503   2.085  1.00  0.00    -0.020 A 
ENDROOT
BRANCH   1  10
ATOM     10  C   UNL     1       2.321   0.098   2.415  1.00  0.00     0.038 C 
BRANCH  10  11
ATOM     11  C   UNL     1       2.231  -0.132   3.928  1.00  0.00     0.156 C 
BRANCH  11  12
ATOM     12  O   UNL     1       2.999  -1.247   4.293  1.00  0.00    -0.396 OA
ATOM     13  H   UNL     1       3.945  -0.946   4.317  1.00  0.00     0.210 HD
ENDBRANCH  11  12
ENDBRANCH  10  11
ENDBRANCH   1  10
BRANCH   3  14
ATOM     14  C   UNL     1       0.406   1.588  -1.622  1.00  0.00     0.152 C 
BRANCH  14  15
ATOM     15  C   UNL     1       0.214   0.159  -2.129  1.00  0.00     0.088 C 
ATOM     16  C   UNL     1      -1.057  -0.605  -1.786  1.00  0.00     0.055 C 
ATOM     17  C   UNL     1      -0.060  -0.056  -3.610  1.00  0.00     0.055 C 
ATOM     18  O   UNL     1       1.258  -0.756  -1.838  1.00  0.00    -0.372 OA
ATOM     19  C   UNL     1      -0.574  -1.351  -3.013  1.00  0.00     0.063 C 
ATOM     20  C   UNL     1       0.728  -1.915  -2.471  1.00  0.00     0.176 C 
BRANCH  19  21
ATOM     21  C   UNL     1      -1.516  -2.216  -3.787  1.00  0.00     0.183 A 
ATOM     22  N   UNL     1      -1.449  -2.407  -5.119  1.00  0.00    -0.113 NA
ATOM     23  N   UNL     1      -2.482  -2.971  -3.230  1.00  0.00    -0.139 NA
ATOM     24  N   UNL     1      -2.406  -3.281  -5.383  1.00  0.00    -0.050 NA
ATOM     25  N   UNL     1      -3.015  -3.610  -4.256  1.00  0.00    -0.177 N 
ATOM     26  H   UNL     1      -3.805  -4.288  -4.186  1.00  0.00     0.216 HD
ENDBRANCH  19  21
ENDBRANCH  14  15
ENDBRANCH   3  14
TORSDOF 6
