REMARK SMILES C[C@@H]1CCCCN1CCC1CCN(c2ncnc3[nH]ncc23)CC1
REMARK SMILES IDX 9 1 8 2 7 3 2 4 3 5 4 6 6 7 5 8 1 9 10 10 11 11 24 12 12 13
REMARK SMILES IDX 23 14 13 15 14 16 15 17 22 18 16 19 21 20 18 21 17 22 20 23
REMARK SMILES IDX 19 24
REMARK H PARENT 19 25
ROOT
ATOM      1  C   UNL     1       1.362  -1.013   0.640  1.00  0.00     0.019 C 
ENDROOT
BRANCH   1   2
ATOM      2  C   UNL     1       0.361  -2.129   1.006  1.00  0.00     0.085 C 
BRANCH   2   3
ATOM      3  N   UNL     1      -1.037  -1.777   0.653  1.00  0.00    -0.301 NA
ATOM      4  C   UNL     1      -1.856  -3.007   0.419  1.00  0.00     0.053 C 
ATOM      5  C   UNL     1      -3.372  -2.781   0.682  1.00  0.00     0.019 C 
ATOM      6  C   UNL     1      -3.773  -1.338   0.374  1.00  0.00     0.003 C 
ATOM      7  C   UNL     1      -1.633  -0.921   1.704  1.00  0.00     0.085 C 
ATOM      8  C   UNL     1      -2.978  -0.345   1.235  1.00  0.00     0.016 C 
ATOM      9  C   UNL     1      -1.660  -3.500  -1.024  1.00  0.00     0.024 C 
ENDBRANCH   2   3
ENDBRANCH   1   2
BRANCH   1  10
ATOM     10  C   UNL     1       1.692  -0.909  -0.876  1.00  0.00    -0.006 C 
ATOM     11  C   UNL     1       2.938  -0.011  -1.107  1.00  0.00     0.025 C 
ATOM     12  C   UNL     1       0.515  -0.399  -1.733  1.00  0.00     0.025 C 
ATOM     13  C   UNL     1       2.611   1.448  -1.495  1.00  0.00     0.118 C 
ATOM     14  C   UNL     1       0.105   1.022  -1.330  1.00  0.00     0.118 C 
ATOM     15  N   UNL     1       1.278   1.855  -1.029  1.00  0.00    -0.356 N 
BRANCH  15  16
ATOM     16  C   UNL     1       1.080   3.101  -0.338  1.00  0.00     0.143 A 
ATOM     17  N   UNL     1       0.276   3.155   0.767  1.00  0.00    -0.219 NA
ATOM     18  C   UNL     1       1.663   4.297  -0.760  1.00  0.00     0.081 A 
ATOM     19  C   UNL     1       0.060   4.327   1.446  1.00  0.00     0.226 A 
ATOM     20  C   UNL     1       2.452   4.676  -1.829  1.00  0.00     0.149 A 
ATOM     21  C   UNL     1       1.433   5.444  -0.071  1.00  0.00     0.160 A 
ATOM     22  N   UNL     1       0.640   5.490   1.025  1.00  0.00    -0.217 NA
ATOM     23  N   UNL     1       2.674   6.012  -1.742  1.00  0.00    -0.181 NA
ATOM     24  N   UNL     1       2.049   6.475  -0.664  1.00  0.00    -0.261 N 
ATOM     25  H   UNL     1       2.039   7.474  -0.363  1.00  0.00     0.192 HD
ENDBRANCH  15  16
ENDBRANCH   1  10
TORSDOF 4
