REMARK SMILES Cc1ccc(CC(C)(C)NC(=O)c2cc(-c3ccn(C)n3)on2)cc1
REMARK SMILES IDX 10 1 11 2 12 3 7 5 8 6 9 7 6 8 5 9 2 10 3 11 25 12 4 13
REMARK SMILES IDX 24 14 1 15 13 16 14 17 23 18 15 19 22 20 16 21 17 22 21 23
REMARK SMILES IDX 18 24 19 25 20 26
REMARK H PARENT 10 4
ROOT
ATOM      1  N   UNL     1      -0.802  -0.963   0.167  1.00  0.00    -0.345 N 
ATOM      2  C   UNL     1      -1.274  -0.428  -1.086  1.00  0.00     0.273 C 
ATOM      3  O   UNL     1      -1.842   0.696  -1.128  1.00  0.00    -0.267 OA
ATOM      4  H   UNL     1      -0.379  -1.917   0.150  1.00  0.00     0.164 HD
ENDROOT
BRANCH   1   5
ATOM      5  C   UNL     1      -0.865  -0.260   1.467  1.00  0.00     0.039 C 
ATOM      6  C   UNL     1      -2.336   0.060   1.812  1.00  0.00     0.035 C 
ATOM      7  C   UNL     1      -0.309  -1.206   2.557  1.00  0.00     0.035 C 
BRANCH   5   8
ATOM      8  C   UNL     1       0.002   1.033   1.392  1.00  0.00     0.063 C 
BRANCH   8   9
ATOM      9  C   UNL     1       0.086   1.807   2.689  1.00  0.00    -0.046 A 
ATOM     10  C   UNL     1       0.243   3.248   5.104  1.00  0.00    -0.051 A 
ATOM     11  C   UNL     1       1.207   2.276   4.795  1.00  0.00     0.004 A 
ATOM     12  C   UNL     1      -0.810   3.481   4.208  1.00  0.00     0.004 A 
ATOM     13  C   UNL     1       1.134   1.568   3.593  1.00  0.00     0.004 A 
ATOM     14  C   UNL     1      -0.884   2.772   3.005  1.00  0.00     0.004 A 
ATOM     15  C   UNL     1       0.299   3.979   6.412  1.00  0.00     0.044 C 
ENDBRANCH   8   9
ENDBRANCH   5   8
ENDBRANCH   1   5
BRANCH   2  16
ATOM     16  C   UNL     1      -1.113  -1.179  -2.346  1.00  0.00     0.171 A 
ATOM     17  C   UNL     1      -0.496  -2.405  -2.519  1.00  0.00     0.090 A 
ATOM     18  N   UNL     1      -1.566  -0.733  -3.535  1.00  0.00    -0.074 NA
ATOM     19  C   UNL     1      -0.620  -2.639  -3.873  1.00  0.00     0.187 A 
ATOM     20  O   UNL     1      -1.254  -1.631  -4.423  1.00  0.00    -0.354 OA
BRANCH  19  21
ATOM     21  C   UNL     1      -0.134  -3.810  -4.612  1.00  0.00     0.130 A 
ATOM     22  C   UNL     1       0.532  -4.900  -4.078  1.00  0.00     0.054 A 
ATOM     23  N   UNL     1      -0.296  -3.974  -5.939  1.00  0.00    -0.170 NA
ATOM     24  C   UNL     1       0.761  -5.724  -5.160  1.00  0.00     0.109 A 
ATOM     25  N   UNL     1       0.262  -5.130  -6.260  1.00  0.00    -0.275 N 
ATOM     26  C   UNL     1       0.238  -5.700  -7.600  1.00  0.00     0.173 C 
ENDBRANCH  19  21
ENDBRANCH   2  16
TORSDOF 5
