REMARK SMILES O=C1CC[C@H](c2cccc(NC(=O)c3ccc(Oc4ccccc4)cn3)c2)N1
REMARK SMILES IDX 13 1 12 2 11 3 14 5 15 6 26 7 16 8 25 9 17 10 18 11 19 12
REMARK SMILES IDX 20 13 24 14 21 15 23 16 22 17 10 18 9 19 27 20 8 21 6 22
REMARK SMILES IDX 7 23 5 24 4 25 28 26 3 27 2 28 1 29
REMARK H PARENT 11 4 28 30
ROOT
ATOM      1  O   UNL     1      -0.547   0.394  -1.633  1.00  0.00    -0.267 OA
ATOM      2  C   UNL     1       0.026  -0.725  -1.744  1.00  0.00     0.274 C 
ATOM      3  N   UNL     1       1.186  -0.859  -2.583  1.00  0.00    -0.321 N 
ATOM      4  H   UNL     1       1.415  -1.808  -2.955  1.00  0.00     0.170 HD
ENDROOT
BRANCH   2   5
ATOM      5  C   UNL     1      -0.528  -1.905  -1.045  1.00  0.00     0.128 A 
ATOM      6  C   UNL     1      -1.712  -1.813  -0.293  1.00  0.00     0.038 A 
ATOM      7  N   UNL     1       0.117  -3.101  -1.123  1.00  0.00    -0.247 NA
ATOM      8  C   UNL     1      -2.208  -2.947   0.350  1.00  0.00     0.051 A 
ATOM      9  C   UNL     1      -0.345  -4.217  -0.501  1.00  0.00     0.159 A 
ATOM     10  C   UNL     1      -1.529  -4.172   0.241  1.00  0.00     0.145 A 
BRANCH  10  11
ATOM     11  O   UNL     1      -1.978  -5.336   0.884  1.00  0.00    -0.456 OA
BRANCH  11  12
ATOM     12  C   UNL     1      -3.316  -5.630   1.176  1.00  0.00     0.127 A 
ATOM     13  C   UNL     1      -4.362  -5.251   0.315  1.00  0.00     0.047 A 
ATOM     14  C   UNL     1      -3.612  -6.361   2.333  1.00  0.00     0.047 A 
ATOM     15  C   UNL     1      -5.686  -5.571   0.634  1.00  0.00     0.004 A 
ATOM     16  C   UNL     1      -4.936  -6.676   2.650  1.00  0.00     0.004 A 
ATOM     17  C   UNL     1      -5.974  -6.278   1.804  1.00  0.00     0.000 A 
ENDBRANCH  11  12
ENDBRANCH  10  11
ENDBRANCH   2   5
BRANCH   3  18
ATOM     18  C   UNL     1       1.998   0.243  -3.026  1.00  0.00     0.041 A 
ATOM     19  C   UNL     1       2.698   0.136  -4.236  1.00  0.00     0.026 A 
ATOM     20  C   UNL     1       2.149   1.409  -2.251  1.00  0.00     0.032 A 
ATOM     21  C   UNL     1       3.504   1.184  -4.685  1.00  0.00     0.003 A 
ATOM     22  C   UNL     1       2.974   2.463  -2.689  1.00  0.00    -0.024 A 
ATOM     23  C   UNL     1       3.634   2.346  -3.922  1.00  0.00     0.006 A 
BRANCH  22  24
ATOM     24  C   UNL     1       3.089   3.756  -1.905  1.00  0.00     0.113 C 
ATOM     25  C   UNL     1       1.926   4.722  -2.241  1.00  0.00     0.040 C 
ATOM     26  N   UNL     1       2.998   3.518  -0.472  1.00  0.00    -0.349 N 
ATOM     27  C   UNL     1       1.005   4.762  -1.011  1.00  0.00     0.102 C 
ATOM     28  C   UNL     1       1.806   4.083   0.027  1.00  0.00     0.220 C 
ATOM     29  O   UNL     1       1.448   3.972   1.231  1.00  0.00    -0.275 OA
ATOM     30  H   UNL     1       3.662   2.935   0.088  1.00  0.00     0.164 HD
ENDBRANCH  22  24
ENDBRANCH   3  18
TORSDOF 5
