REMARK SMILES O=C1N[C@]2(CCc3ccccc32)C(=O)N1Cc1ncc(Cl)cc1Cl
REMARK SMILES IDX 16 1 15 2 1 3 2 4 3 5 4 6 13 7 5 8 12 9 14 10 6 11 11 12
REMARK SMILES IDX 7 13 10 14 8 15 9 16 17 18 18 19 23 20 19 21 22 22 20 23
REMARK SMILES IDX 24 24 21 25
REMARK H PARENT 3 17
ROOT
ATOM      1  C   UNL     1      -2.610   0.103  -1.989  1.00  0.00     0.188 C 
ENDROOT
BRANCH   1   2
ATOM      2  N   UNL     1      -1.658   0.918  -1.237  1.00  0.00    -0.256 N 
ATOM      3  O   UNL     1      -3.027   1.640   0.548  1.00  0.00    -0.248 OA
ATOM      4  C   UNL     1      -1.881   1.432   0.069  1.00  0.00     0.325 C 
ATOM      5  N   UNL     1      -0.684   1.650   0.802  1.00  0.00    -0.319 N 
ATOM      6  C   UNL     1       0.433   1.208  -0.030  1.00  0.00     0.147 C 
ATOM      7  C   UNL     1      -0.240   0.793  -1.308  1.00  0.00     0.261 C 
ATOM      8  C   UNL     1       1.500   2.315  -0.211  1.00  0.00     0.048 C 
ATOM      9  C   UNL     1       1.161   0.080   0.605  1.00  0.00    -0.010 A 
ATOM     10  O   UNL     1       0.366   0.356  -2.323  1.00  0.00    -0.271 OA
ATOM     11  C   UNL     1       2.835   1.738   0.305  1.00  0.00     0.039 C 
ATOM     12  C   UNL     1       0.639  -1.161   0.989  1.00  0.00     0.007 A 
ATOM     13  C   UNL     1       2.489   0.377   0.786  1.00  0.00    -0.042 A 
ATOM     14  C   UNL     1       1.500  -2.106   1.566  1.00  0.00     0.000 A 
ATOM     15  C   UNL     1       3.363  -0.550   1.359  1.00  0.00     0.004 A 
ATOM     16  C   UNL     1       2.860  -1.801   1.751  1.00  0.00     0.000 A 
ATOM     17  H   UNL     1      -0.626   1.973   1.794  1.00  0.00     0.166 HD
ENDBRANCH   1   2
BRANCH   1  18
ATOM     18  C   UNL     1      -2.679  -1.282  -1.398  1.00  0.00     0.079 A 
ATOM     19  N   UNL     1      -3.386  -1.454  -0.246  1.00  0.00    -0.256 NA
ATOM     20  C   UNL     1      -1.976  -2.377  -1.946  1.00  0.00     0.065 A 
ATOM     21  C   UNL     1      -3.448  -2.649   0.397  1.00  0.00     0.132 A 
ATOM     22  C   UNL     1      -2.028  -3.612  -1.292  1.00  0.00     0.044 A 
ATOM     23  C   UNL     1      -2.764  -3.752  -0.115  1.00  0.00     0.060 A 
ATOM     24  Cl  UNL     1      -1.038  -2.257  -3.430  1.00  0.00    -0.082 Cl
ATOM     25  Cl  UNL     1      -2.826  -5.296   0.715  1.00  0.00    -0.083 Cl
ENDBRANCH   1  18
TORSDOF 2
