REMARK SMILES Cc1cc(NC(=O)NC2CCN([C@@H](C)c3ccccc3)CC2)nn1-c1ccc(F)cc1F
REMARK SMILES IDX 5 1 6 2 7 3 8 4 4 7 2 8 3 9 24 10 23 11 1 12 25 13 26 14
REMARK SMILES IDX 31 15 27 16 30 17 28 18 32 19 29 20 9 21 10 22 22 23 11 24
REMARK SMILES IDX 21 25 12 26 13 27 14 28 15 29 16 30 20 31 17 32 19 33 18 34
REMARK H PARENT 5 5 8 6
ROOT
ATOM      1  N   UNL     1       1.104   1.343  -1.604  1.00  0.00    -0.291 N 
ATOM      2  C   UNL     1       1.485   0.391  -0.599  1.00  0.00     0.320 C 
ATOM      3  O   UNL     1       2.277   0.721   0.326  1.00  0.00    -0.248 OA
ATOM      4  N   UNL     1       0.992  -0.954  -0.676  1.00  0.00    -0.335 N 
ATOM      5  H   UNL     1       0.622   0.986  -2.460  1.00  0.00     0.173 HD
ATOM      6  H   UNL     1       0.321  -1.191  -1.442  1.00  0.00     0.165 HD
ENDROOT
BRANCH   1   7
ATOM      7  C   UNL     1       1.394   2.746  -1.546  1.00  0.00     0.156 A 
ATOM      8  C   UNL     1       1.811   4.778  -0.883  1.00  0.00     0.043 A 
ATOM      9  C   UNL     1       1.681   3.488  -0.411  1.00  0.00     0.072 A 
ATOM     10  N   UNL     1       1.621   4.778  -2.224  1.00  0.00    -0.233 N 
ATOM     11  N   UNL     1       1.349   3.546  -2.628  1.00  0.00    -0.150 NA
ATOM     12  C   UNL     1       2.078   5.981  -0.031  1.00  0.00     0.067 C 
BRANCH  10  13
ATOM     13  C   UNL     1       1.674   5.901  -3.121  1.00  0.00     0.101 A 
ATOM     14  C   UNL     1       2.744   6.812  -3.064  1.00  0.00     0.034 A 
ATOM     15  C   UNL     1       0.678   6.072  -4.100  1.00  0.00     0.151 A 
ATOM     16  C   UNL     1       2.803   7.888  -3.954  1.00  0.00     0.041 A 
ATOM     17  C   UNL     1       0.741   7.153  -4.986  1.00  0.00     0.080 A 
ATOM     18  C   UNL     1       1.801   8.061  -4.912  1.00  0.00     0.126 A 
ATOM     19  F   UNL     1      -0.363   5.207  -4.181  1.00  0.00    -0.205 F 
ATOM     20  F   UNL     1       1.861   9.106  -5.775  1.00  0.00    -0.207 F 
ENDBRANCH  10  13
ENDBRANCH   1   7
BRANCH   4  21
ATOM     21  C   UNL     1       1.389  -1.990   0.285  1.00  0.00     0.086 C 
ATOM     22  C   UNL     1       1.115  -3.400  -0.286  1.00  0.00     0.040 C 
ATOM     23  C   UNL     1       0.659  -1.764   1.627  1.00  0.00     0.040 C 
ATOM     24  C   UNL     1      -0.249  -3.923   0.176  1.00  0.00     0.087 C 
ATOM     25  C   UNL     1       0.493  -3.081   2.398  1.00  0.00     0.087 C 
ATOM     26  N   UNL     1      -0.304  -4.100   1.652  1.00  0.00    -0.296 NA
BRANCH  26  27
ATOM     27  C   UNL     1      -1.700  -4.212   2.168  1.00  0.00     0.083 C 
ATOM     28  C   UNL     1      -2.557  -5.203   1.355  1.00  0.00     0.030 C 
BRANCH  27  29
ATOM     29  C   UNL     1      -1.701  -4.686   3.612  1.00  0.00    -0.031 A 
ATOM     30  C   UNL     1      -0.908  -5.779   4.008  1.00  0.00     0.005 A 
ATOM     31  C   UNL     1      -2.529  -4.062   4.561  1.00  0.00     0.005 A 
ATOM     32  C   UNL     1      -0.926  -6.220   5.334  1.00  0.00     0.000 A 
ATOM     33  C   UNL     1      -2.546  -4.510   5.886  1.00  0.00     0.000 A 
ATOM     34  C   UNL     1      -1.743  -5.585   6.273  1.00  0.00     0.000 A 
ENDBRANCH  27  29
ENDBRANCH  26  27
ENDBRANCH   4  21
TORSDOF 5
