REMARK SMILES O=C(Nc1ccc(-n2cccn2)nc1)[C@@H]1C[C@@H]1C1CCCC1
REMARK SMILES IDX 1 1 2 2 3 3 15 5 16 6 17 7 18 8 19 9 22 10 20 11 21 12 4 13
REMARK SMILES IDX 5 14 14 15 6 16 13 17 7 18 8 19 9 20 12 21 10 22 11 23
REMARK H PARENT 3 4
ROOT
ATOM      1  O   UNL     1      -1.218   1.250  -1.897  1.00  0.00    -0.274 OA
ATOM      2  C   UNL     1      -0.798   1.402  -0.719  1.00  0.00     0.227 C 
ATOM      3  N   UNL     1       0.470   0.854  -0.324  1.00  0.00    -0.324 N 
ATOM      4  H   UNL     1       0.940   1.274   0.510  1.00  0.00     0.169 HD
ENDROOT
BRANCH   2   5
ATOM      5  C   UNL     1      -1.562   2.291   0.219  1.00  0.00     0.082 C 
ATOM      6  C   UNL     1      -1.649   1.806   1.667  1.00  0.00     0.018 C 
ATOM      7  C   UNL     1      -2.902   1.818   0.798  1.00  0.00     0.005 C 
BRANCH   7   8
ATOM      8  C   UNL     1      -3.558   0.448   0.455  1.00  0.00    -0.007 C 
ATOM      9  C   UNL     1      -2.745  -0.846   0.589  1.00  0.00     0.004 C 
ATOM     10  C   UNL     1      -4.178   0.429  -0.946  1.00  0.00     0.004 C 
ATOM     11  C   UNL     1      -3.401  -1.816  -0.377  1.00  0.00     0.000 C 
ATOM     12  C   UNL     1      -3.913  -0.959  -1.524  1.00  0.00     0.000 C 
ENDBRANCH   7   8
ENDBRANCH   2   5
BRANCH   3  13
ATOM     13  C   UNL     1       1.181  -0.160  -1.057  1.00  0.00     0.059 A 
ATOM     14  C   UNL     1       2.576  -0.227  -0.966  1.00  0.00     0.031 A 
ATOM     15  C   UNL     1       0.515  -1.132  -1.821  1.00  0.00     0.139 A 
ATOM     16  C   UNL     1       3.283  -1.218  -1.651  1.00  0.00     0.051 A 
ATOM     17  N   UNL     1       1.223  -2.090  -2.476  1.00  0.00    -0.235 NA
ATOM     18  C   UNL     1       2.582  -2.160  -2.422  1.00  0.00     0.153 A 
BRANCH  18  19
ATOM     19  N   UNL     1       3.258  -3.204  -3.148  1.00  0.00    -0.223 N 
ATOM     20  C   UNL     1       4.587  -3.427  -3.232  1.00  0.00     0.117 A 
ATOM     21  N   UNL     1       2.614  -4.115  -3.861  1.00  0.00    -0.175 NA
ATOM     22  C   UNL     1       4.795  -4.529  -4.032  1.00  0.00     0.042 A 
ATOM     23  C   UNL     1       3.531  -4.934  -4.409  1.00  0.00     0.135 A 
ENDBRANCH  18  19
ENDBRANCH   3  13
TORSDOF 4
