REMARK SMILES C[C@H]1CN(C(=O)c2cc3oc(Br)cc3[nH]2)CCN(C2CCC2)C1
REMARK SMILES IDX 4 1 3 2 2 3 1 4 16 6 17 7 18 8 23 9 19 11 20 12 22 13 21 14
REMARK SMILES IDX 5 15 6 16 7 17 8 18 15 19 9 20 14 21 10 22 13 23 11 24 12 26
REMARK H PARENT 15 25
REMARK Flexibility Score:   47.900
ROOT
ATOM      1  N   UNL     1       0.124  -1.700  -0.490  1.00  0.00    -0.336 N 
ENDROOT
BRANCH   1   2
ATOM      2  C   UNL     1      -1.336  -1.837  -0.420  1.00  0.00     0.124 C 
BRANCH   2   3
ATOM      3  C   UNL     1      -2.008  -1.445  -1.750  1.00  0.00     0.019 CG0
ATOM      4  C   UNL     1      -3.506  -1.775  -1.677  1.00  0.00     0.011 C 
ATOM      5  G   UNL     1      -1.375  -2.148  -2.984  1.00  0.00     0.000 G0
ENDBRANCH   2   3
ENDBRANCH   1   2
BRANCH   1   6
ATOM      6  C   UNL     1       0.881  -2.700  -1.246  1.00  0.00     0.135 C 
BRANCH   6   7
ATOM      7  C   UNL     1       1.120  -2.263  -2.701  1.00  0.00     0.106 C 
BRANCH   7   8
ATOM      8  N   UNL     1      -0.040  -1.627  -3.381  1.00  0.00    -0.298 NA
BRANCH   8   9
ATOM      9  C   UNL     1      -1.375  -2.148  -2.984  1.00  0.00     0.090 CG0
ATOM     10  G   UNL     1      -2.008  -1.445  -1.750  1.00  0.00     0.000 G0
ENDBRANCH   8   9
BRANCH   8  11
ATOM     11  C   UNL     1       0.076  -0.151  -3.480  1.00  0.00     0.056 C 
ATOM     12  C   UNL     1       1.218   0.294  -4.398  1.00  0.00     0.019 C 
ATOM     13  C   UNL     1      -0.923   0.497  -4.446  1.00  0.00     0.019 C 
ATOM     14  C   UNL     1       0.223   0.975  -5.322  1.00  0.00     0.003 C 
ENDBRANCH   8  11
ENDBRANCH   7   8
ENDBRANCH   6   7
ENDBRANCH   1   6
BRANCH   1  15
ATOM     15  C   UNL     1       0.812  -0.592   0.122  1.00  0.00     0.270 C 
ATOM     16  O   UNL     1       1.769  -0.041  -0.487  1.00  0.00    -0.267 OA
BRANCH  15  17
ATOM     17  C   UNL     1       0.459  -0.113   1.470  1.00  0.00     0.108 A 
ATOM     18  C   UNL     1       0.779   1.166   1.971  1.00  0.00     0.081 A 
ATOM     19  N   UNL     1      -0.162  -0.884   2.413  1.00  0.00    -0.348 N 
ATOM     20  C   UNL     1       0.299   1.107   3.253  1.00  0.00     0.154 A 
ATOM     21  C   UNL     1      -0.234  -0.072   3.472  1.00  0.00     0.086 A 
ATOM     22  O   UNL     1       0.242   1.878   4.304  1.00  0.00    -0.448 OA
ATOM     23  C   UNL     1      -0.688  -0.140   4.761  1.00  0.00     0.085 A 
ATOM     24  C   UNL     1      -0.357   1.142   5.240  1.00  0.00     0.172 A 
ATOM     25  H   UNL     1      -0.474  -1.879   2.346  1.00  0.00     0.167 HD
ATOM     26  Br  UNL     1      -0.710   1.764   7.006  1.00  0.00    -0.008 Br
ENDBRANCH  15  17
ENDBRANCH   1  15
TORSDOF 3
