REMARK SMILES CC1(Cn2cc(C(=O)N[C@@H]3C[C@H]3c3cccc(F)c3)nn2)COC1
REMARK SMILES IDX 4 1 5 2 6 3 20 4 21 5 3 6 2 7 22 8 24 9 23 10 1 11 7 12 8 13
REMARK SMILES IDX 9 14 10 16 11 17 12 18 13 19 14 20 19 21 15 22 17 23 16 24
REMARK SMILES IDX 18 25
REMARK H PARENT 9 15
ROOT
ATOM      1  N   UNL     1      -0.881  -0.550   3.547  1.00  0.00    -0.251 N 
ATOM      2  C   UNL     1      -0.593  -0.411   2.242  1.00  0.00     0.145 A 
ATOM      3  C   UNL     1       0.693  -0.887   2.083  1.00  0.00     0.170 A 
ATOM      4  N   UNL     1       1.143  -1.298   3.287  1.00  0.00    -0.125 NA
ATOM      5  N   UNL     1       0.165  -1.084   4.156  1.00  0.00    -0.067 NA
ENDROOT
BRANCH   1   6
ATOM      6  C   UNL     1      -2.141  -0.218   4.208  1.00  0.00     0.157 C 
BRANCH   6   7
ATOM      7  C   UNL     1      -3.145  -1.389   4.122  1.00  0.00     0.034 C 
ATOM      8  C   UNL     1      -3.836  -1.538   2.778  1.00  0.00     0.171 C 
ATOM      9  C   UNL     1      -4.541  -1.021   4.593  1.00  0.00     0.171 C 
ATOM     10  O   UNL     1      -5.094  -1.192   3.309  1.00  0.00    -0.380 OA
ATOM     11  C   UNL     1      -2.633  -2.714   4.713  1.00  0.00     0.018 C 
ENDBRANCH   6   7
ENDBRANCH   1   6
BRANCH   3  12
ATOM     12  C   UNL     1       1.483  -0.953   0.843  1.00  0.00     0.273 C 
ATOM     13  O   UNL     1       2.667  -1.382   0.894  1.00  0.00    -0.267 OA
ATOM     14  N   UNL     1       0.927  -0.538  -0.413  1.00  0.00    -0.347 N 
ATOM     15  H   UNL     1      -0.081  -0.274  -0.478  1.00  0.00     0.164 HD
BRANCH  14  16
ATOM     16  C   UNL     1       1.702  -0.612  -1.648  1.00  0.00     0.090 C 
ATOM     17  C   UNL     1       2.723   0.515  -1.775  1.00  0.00     0.036 C 
ATOM     18  C   UNL     1       1.444   0.546  -2.605  1.00  0.00     0.044 C 
BRANCH  18  19
ATOM     19  C   UNL     1       1.589   0.265  -4.090  1.00  0.00    -0.040 A 
ATOM     20  C   UNL     1       0.786   1.002  -4.978  1.00  0.00     0.004 A 
ATOM     21  C   UNL     1       2.482  -0.693  -4.622  1.00  0.00     0.043 A 
ATOM     22  C   UNL     1       0.867   0.792  -6.357  1.00  0.00     0.003 A 
ATOM     23  C   UNL     1       2.559  -0.899  -6.003  1.00  0.00     0.123 A 
ATOM     24  C   UNL     1       1.753  -0.158  -6.870  1.00  0.00     0.039 A 
ATOM     25  F   UNL     1       3.420  -1.820  -6.503  1.00  0.00    -0.207 F 
ENDBRANCH  18  19
ENDBRANCH  14  16
ENDBRANCH   3  12
TORSDOF 5
