REMARK SMILES CC[C@@](C)(O)Cc1cn(Cc2cc(C(F)(F)F)ncc2F)nn1
REMARK SMILES IDX 7 1 8 2 9 3 22 4 23 5 6 6 3 7 4 8 2 9 1 10 5 11 10 13 11 14
REMARK SMILES IDX 12 15 20 16 13 17 19 18 18 19 21 20 14 21 15 22 16 23 17 24
REMARK H PARENT 5 12
ROOT
ATOM      1  C   UNL     1      -0.342  -1.068   0.021  1.00  0.00     0.086 A 
ATOM      2  C   UNL     1      -0.166   0.270   0.301  1.00  0.00     0.135 A 
ATOM      3  N   UNL     1       1.012   0.360   0.941  1.00  0.00    -0.248 N 
ATOM      4  N   UNL     1       1.535  -0.852   1.038  1.00  0.00    -0.067 NA
ATOM      5  N   UNL     1       0.723  -1.748   0.492  1.00  0.00    -0.135 NA
ENDROOT
BRANCH   1   6
ATOM      6  C   UNL     1      -1.526  -1.697  -0.652  1.00  0.00     0.094 C 
BRANCH   6   7
ATOM      7  C   UNL     1      -2.582  -2.224   0.362  1.00  0.00     0.067 C 
ATOM      8  C   UNL     1      -3.241  -1.046   1.107  1.00  0.00     0.042 C 
BRANCH   7   9
ATOM      9  C   UNL     1      -3.663  -3.085  -0.355  1.00  0.00     0.032 C 
ATOM     10  C   UNL     1      -4.498  -2.344  -1.406  1.00  0.00     0.007 C 
ENDBRANCH   7   9
BRANCH   7  11
ATOM     11  O   UNL     1      -1.949  -3.029   1.331  1.00  0.00    -0.390 OA
ATOM     12  H   UNL     1      -1.493  -3.776   0.860  1.00  0.00     0.211 HD
ENDBRANCH   7  11
ENDBRANCH   6   7
ENDBRANCH   1   6
BRANCH   3  13
ATOM     13  C   UNL     1       1.671   1.582   1.385  1.00  0.00     0.184 C 
BRANCH  13  14
ATOM     14  C   UNL     1       2.445   2.187   0.245  1.00  0.00     0.013 A 
ATOM     15  C   UNL     1       1.828   3.114  -0.608  1.00  0.00     0.042 A 
ATOM     16  C   UNL     1       3.763   1.784  -0.022  1.00  0.00     0.146 A 
ATOM     17  C   UNL     1       2.541   3.641  -1.694  1.00  0.00     0.144 A 
ATOM     18  C   UNL     1       4.440   2.331  -1.114  1.00  0.00     0.151 A 
ATOM     19  N   UNL     1       3.822   3.237  -1.916  1.00  0.00    -0.249 NA
ATOM     20  F   UNL     1       4.385   0.867   0.762  1.00  0.00    -0.205 F 
BRANCH  17  21
ATOM     21  C   UNL     1       1.894   4.633  -2.615  1.00  0.00     0.433 C 
ATOM     22  F   UNL     1       2.788   5.050  -3.587  1.00  0.00    -0.165 F 
ATOM     23  F   UNL     1       1.473   5.735  -1.893  1.00  0.00    -0.165 F 
ATOM     24  F   UNL     1       0.803   4.049  -3.232  1.00  0.00    -0.165 F 
ENDBRANCH  17  21
ENDBRANCH  13  14
ENDBRANCH   3  13
TORSDOF 7
