REMARK SMILES O=c1ccc(-c2nnco2)cn1Cc1ncnn1-c1ccccc1
REMARK SMILES IDX 13 1 12 2 1 3 2 4 3 5 4 6 11 7 5 8 6 9 7 10 10 11 8 12 9 13
REMARK SMILES IDX 14 14 15 15 18 16 16 17 17 18 19 19 20 20 24 21 21 22 23 23
REMARK SMILES IDX 22 24
REMARK H PARENT
ROOT
ATOM      1  C   UNL     1      -0.156   2.590  -0.783  1.00  0.00     0.202 C 
ENDROOT
BRANCH   1   2
ATOM      2  N   UNL     1      -1.086   1.450  -0.867  1.00  0.00    -0.307 N 
ATOM      3  O   UNL     1      -1.231   1.616  -3.146  1.00  0.00    -0.269 OA
ATOM      4  C   UNL     1      -1.550   1.016  -2.084  1.00  0.00     0.250 A 
ATOM      5  C   UNL     1      -2.382  -0.104  -2.163  1.00  0.00     0.072 A 
ATOM      6  C   UNL     1      -2.736  -0.785  -1.002  1.00  0.00     0.021 A 
ATOM      7  C   UNL     1      -1.459   0.805   0.283  1.00  0.00     0.103 A 
ATOM      8  C   UNL     1      -2.273  -0.336   0.239  1.00  0.00     0.055 A 
BRANCH   8   9
ATOM      9  C   UNL     1      -2.621  -1.064   1.475  1.00  0.00     0.248 A 
ATOM     10  N   UNL     1      -2.206  -0.716   2.708  1.00  0.00    -0.108 NA
ATOM     11  O   UNL     1      -3.368  -2.142   1.517  1.00  0.00    -0.423 OA
ATOM     12  N   UNL     1      -2.717  -1.612   3.538  1.00  0.00    -0.116 NA
ATOM     13  C   UNL     1      -3.424  -2.474   2.784  1.00  0.00     0.333 A 
ENDBRANCH   8   9
ENDBRANCH   1   2
BRANCH   1  14
ATOM     14  C   UNL     1       1.192   2.215  -1.338  1.00  0.00     0.152 A 
ATOM     15  N   UNL     1       1.692   2.743  -2.472  1.00  0.00    -0.218 NA
ATOM     16  N   UNL     1       1.986   1.232  -0.867  1.00  0.00    -0.216 N 
ATOM     17  C   UNL     1       2.825   2.029  -2.650  1.00  0.00     0.246 A 
ATOM     18  N   UNL     1       3.009   1.102  -1.691  1.00  0.00    -0.154 NA
BRANCH  16  19
ATOM     19  C   UNL     1       1.776   0.398   0.279  1.00  0.00     0.067 A 
ATOM     20  C   UNL     1       1.680  -0.993   0.124  1.00  0.00     0.028 A 
ATOM     21  C   UNL     1       1.663   0.962   1.559  1.00  0.00     0.028 A 
ATOM     22  C   UNL     1       1.438  -1.808   1.235  1.00  0.00     0.002 A 
ATOM     23  C   UNL     1       1.426   0.144   2.668  1.00  0.00     0.002 A 
ATOM     24  C   UNL     1       1.308  -1.240   2.505  1.00  0.00     0.000 A 
ENDBRANCH  16  19
ENDBRANCH   1  14
TORSDOF 4
