REMARK SMILES O=C(c1c[nH]nc1-c1ccc(Cl)s1)N1CCN(CC2CC2)CC1
REMARK SMILES IDX 1 1 2 2 14 3 15 4 16 5 17 6 22 7 23 8 3 9 4 10 7 11 5 12
REMARK SMILES IDX 6 13 8 15 9 16 13 17 10 18 11 19 12 20 18 21 19 22 20 23
REMARK SMILES IDX 21 24
REMARK H PARENT 5 14
ROOT
ATOM      1  O   UNL     1      -1.793  -1.445   0.585  1.00  0.00    -0.269 OA
ATOM      2  C   UNL     1      -0.558  -1.197   0.638  1.00  0.00     0.257 C 
ATOM      3  N   UNL     1      -0.096   0.161   0.487  1.00  0.00    -0.336 N 
ATOM      4  C   UNL     1      -0.903   1.271   1.004  1.00  0.00     0.135 C 
ATOM      5  C   UNL     1      -0.798   2.498   0.083  1.00  0.00     0.106 C 
ATOM      6  N   UNL     1       0.596   2.826  -0.292  1.00  0.00    -0.300 NA
ATOM      7  C   UNL     1       1.276   1.659  -0.890  1.00  0.00     0.106 C 
ATOM      8  C   UNL     1       1.274   0.449   0.049  1.00  0.00     0.135 C 
ENDROOT
BRANCH   2   9
ATOM      9  C   UNL     1       0.381  -2.304   0.902  1.00  0.00     0.086 A 
ATOM     10  C   UNL     1       1.434  -2.272   1.793  1.00  0.00     0.119 A 
ATOM     11  C   UNL     1       0.334  -3.621   0.457  1.00  0.00     0.115 A 
ATOM     12  N   UNL     1       1.972  -3.502   1.861  1.00  0.00    -0.284 N 
ATOM     13  N   UNL     1       1.315  -4.324   1.059  1.00  0.00    -0.174 NA
ATOM     14  H   UNL     1       2.777  -3.786   2.461  1.00  0.00     0.189 HD
BRANCH  11  15
ATOM     15  C   UNL     1      -0.559  -4.210  -0.558  1.00  0.00     0.057 A 
ATOM     16  C   UNL     1      -0.743  -5.575  -0.763  1.00  0.00     0.024 A 
ATOM     17  S   UNL     1      -1.423  -3.374  -1.741  1.00  0.00    -0.122 S 
ATOM     18  C   UNL     1      -1.587  -5.870  -1.839  1.00  0.00     0.033 A 
ATOM     19  C   UNL     1      -2.054  -4.738  -2.490  1.00  0.00     0.094 A 
ATOM     20  Cl  UNL     1      -3.115  -4.722  -3.883  1.00  0.00    -0.072 Cl
ENDBRANCH  11  15
ENDBRANCH   2   9
BRANCH   6  21
ATOM     21  C   UNL     1       1.372   3.446   0.804  1.00  0.00     0.088 C 
BRANCH  21  22
ATOM     22  C   UNL     1       1.013   4.935   0.924  1.00  0.00     0.003 C 
ATOM     23  C   UNL     1       2.133   5.843   1.410  1.00  0.00     0.005 C 
ATOM     24  C   UNL     1       1.726   5.854  -0.056  1.00  0.00     0.005 C 
ENDBRANCH  21  22
ENDBRANCH   6  21
TORSDOF 4
