REMARK SMILES CSc1cc(C)ccc1C(=O)Nc1[nH]nnc1C(=O)N1CCCC1
REMARK SMILES IDX 3 1 4 2 5 3 6 4 7 5 8 6 9 7 2 8 1 9 10 10 11 11 12 12 13 14
REMARK SMILES IDX 14 15 17 16 15 17 16 18 18 20 19 21 20 22 21 23 24 24 22 25
REMARK SMILES IDX 23 26
REMARK H PARENT 12 13 14 19
ROOT
ATOM      1  C   UNL     1      -1.289  -2.882  -1.228  1.00  0.00     0.020 A 
ATOM      2  C   UNL     1      -2.012  -4.008  -0.811  1.00  0.00     0.019 A 
ATOM      3  C   UNL     1      -2.625  -4.037   0.450  1.00  0.00    -0.050 A 
ATOM      4  C   UNL     1      -3.368  -5.259   0.901  1.00  0.00     0.044 C 
ATOM      5  C   UNL     1      -2.489  -2.937   1.307  1.00  0.00     0.004 A 
ATOM      6  C   UNL     1      -1.766  -1.813   0.901  1.00  0.00     0.015 A 
ATOM      7  C   UNL     1      -1.148  -1.778  -0.358  1.00  0.00     0.053 A 
ENDROOT
BRANCH   1   8
ATOM      8  S   UNL     1      -0.616  -2.874  -2.899  1.00  0.00    -0.129 SA
ATOM      9  C   UNL     1      -2.102  -2.115  -3.626  1.00  0.00     0.091 C 
ENDBRANCH   1   8
BRANCH   7  10
ATOM     10  C   UNL     1      -0.384  -0.575  -0.738  1.00  0.00     0.258 C 
ATOM     11  O   UNL     1      -0.943   0.553  -0.667  1.00  0.00    -0.269 OA
ATOM     12  N   UNL     1       0.983  -0.682  -1.165  1.00  0.00    -0.305 N 
ATOM     13  H   UNL     1       1.392  -1.629  -1.326  1.00  0.00     0.171 HD
BRANCH  12  14
ATOM     14  C   UNL     1       1.766   0.452  -1.554  1.00  0.00     0.162 A 
ATOM     15  N   UNL     1       2.490   0.510  -2.680  1.00  0.00    -0.242 N 
ATOM     16  C   UNL     1       1.940   1.648  -0.882  1.00  0.00     0.194 A 
ATOM     17  N   UNL     1       3.075   1.697  -2.715  1.00  0.00    -0.067 NA
ATOM     18  N   UNL     1       2.764   2.404  -1.635  1.00  0.00    -0.123 NA
ATOM     19  H   UNL     1       2.581  -0.225  -3.415  1.00  0.00     0.194 HD
BRANCH  16  20
ATOM     20  C   UNL     1       1.473   2.003   0.476  1.00  0.00     0.278 C 
ATOM     21  O   UNL     1       1.187   1.074   1.280  1.00  0.00    -0.267 OA
ATOM     22  N   UNL     1       1.340   3.371   0.909  1.00  0.00    -0.337 N 
ATOM     23  C   UNL     1       0.792   3.722   2.209  1.00  0.00     0.120 C 
ATOM     24  C   UNL     1       1.605   4.538   0.083  1.00  0.00     0.120 C 
ATOM     25  C   UNL     1       0.521   5.219   2.156  1.00  0.00     0.023 C 
ATOM     26  C   UNL     1       1.310   5.747   0.962  1.00  0.00     0.023 C 
ENDBRANCH  16  20
ENDBRANCH  12  14
ENDBRANCH   7  10
TORSDOF 4
