REMARK SMILES CC1(Cn2cc(C(=O)N[C@@H]3C[C@H]3c3cccc(F)c3)nn2)COC1
REMARK SMILES IDX 4 1 5 2 6 3 20 4 21 5 3 6 2 7 22 8 24 9 23 10 1 11 7 12 8 13
REMARK SMILES IDX 9 14 10 16 11 17 12 18 13 19 14 20 19 21 15 22 17 23 16 24
REMARK SMILES IDX 18 25
REMARK H PARENT 9 15
ROOT
ATOM      1  N   UNL     1      -0.574  -2.540   2.106  1.00  0.00    -0.251 N 
ATOM      2  C   UNL     1      -0.395  -1.403   1.411  1.00  0.00     0.145 A 
ATOM      3  C   UNL     1       0.310  -0.555   2.240  1.00  0.00     0.170 A 
ATOM      4  N   UNL     1       0.523  -1.189   3.410  1.00  0.00    -0.125 NA
ATOM      5  N   UNL     1      -0.029  -2.389   3.303  1.00  0.00    -0.067 NA
ENDROOT
BRANCH   1   6
ATOM      6  C   UNL     1      -1.317  -3.726   1.673  1.00  0.00     0.157 C 
BRANCH   6   7
ATOM      7  C   UNL     1      -0.424  -4.843   1.068  1.00  0.00     0.034 C 
ATOM      8  C   UNL     1       0.642  -4.391   0.084  1.00  0.00     0.171 C 
ATOM      9  C   UNL     1       0.777  -5.253   1.903  1.00  0.00     0.171 C 
ATOM     10  O   UNL     1       1.691  -4.789   0.936  1.00  0.00    -0.380 OA
ATOM     11  C   UNL     1      -1.247  -6.040   0.564  1.00  0.00     0.018 C 
ENDBRANCH   6   7
ENDBRANCH   1   6
BRANCH   3  12
ATOM     12  C   UNL     1       0.759   0.818   1.953  1.00  0.00     0.273 C 
ATOM     13  O   UNL     1       1.355   1.467   2.854  1.00  0.00    -0.267 OA
ATOM     14  N   UNL     1       0.529   1.421   0.671  1.00  0.00    -0.347 N 
ATOM     15  H   UNL     1       0.122   0.857  -0.107  1.00  0.00     0.164 HD
BRANCH  14  16
ATOM     16  C   UNL     1       0.989   2.774   0.375  1.00  0.00     0.090 C 
ATOM     17  C   UNL     1       0.101   3.851   0.995  1.00  0.00     0.036 C 
ATOM     18  C   UNL     1       0.029   3.569  -0.503  1.00  0.00     0.044 C 
BRANCH  18  19
ATOM     19  C   UNL     1       0.634   4.615  -1.423  1.00  0.00    -0.040 A 
ATOM     20  C   UNL     1      -0.025   4.881  -2.635  1.00  0.00     0.004 A 
ATOM     21  C   UNL     1       1.817   5.328  -1.125  1.00  0.00     0.043 A 
ATOM     22  C   UNL     1       0.478   5.832  -3.528  1.00  0.00     0.003 A 
ATOM     23  C   UNL     1       2.317   6.278  -2.022  1.00  0.00     0.123 A 
ATOM     24  C   UNL     1       1.648   6.529  -3.222  1.00  0.00     0.039 A 
ATOM     25  F   UNL     1       3.451   6.958  -1.726  1.00  0.00    -0.207 F 
ENDBRANCH  18  19
ENDBRANCH  14  16
ENDBRANCH   3  12
TORSDOF 5
