REMARK SMILES CCCNC(=O)C1CCN(C(=O)c2cccc(Cl)c2)CC1
REMARK SMILES IDX 4 1 5 2 6 3 3 5 2 6 1 7 7 8 8 9 21 10 9 11 20 12 10 13 11 14
REMARK SMILES IDX 12 15 13 16 14 17 19 18 15 19 17 20 16 21 18 22
REMARK H PARENT 4 4
ROOT
ATOM      1  N   UNL     1      -3.006  -1.405  -1.755  1.00  0.00    -0.356 N 
ATOM      2  C   UNL     1      -1.654  -0.929  -1.760  1.00  0.00     0.223 C 
ATOM      3  O   UNL     1      -0.785  -1.505  -2.472  1.00  0.00    -0.275 OA
ATOM      4  H   UNL     1      -3.698  -0.945  -1.120  1.00  0.00     0.163 HD
ENDROOT
BRANCH   1   5
ATOM      5  C   UNL     1      -3.421  -2.528  -2.597  1.00  0.00     0.115 C 
BRANCH   5   6
ATOM      6  C   UNL     1      -4.922  -2.815  -2.459  1.00  0.00     0.018 C 
ATOM      7  C   UNL     1      -5.777  -1.720  -3.095  1.00  0.00     0.006 C 
ENDBRANCH   5   6
ENDBRANCH   1   5
BRANCH   2   8
ATOM      8  C   UNL     1      -1.252   0.229  -0.878  1.00  0.00     0.082 C 
ATOM      9  C   UNL     1      -0.417   1.276  -1.661  1.00  0.00     0.035 C 
ATOM     10  C   UNL     1      -0.539  -0.297   0.390  1.00  0.00     0.035 C 
ATOM     11  C   UNL     1       1.092   1.106  -1.450  1.00  0.00     0.120 C 
ATOM     12  C   UNL     1       0.413   0.747   0.979  1.00  0.00     0.120 C 
ATOM     13  N   UNL     1       1.428   1.125  -0.018  1.00  0.00    -0.339 N 
ATOM     14  C   UNL     1       2.796   1.346   0.377  1.00  0.00     0.253 C 
ATOM     15  O   UNL     1       3.728   0.992  -0.397  1.00  0.00    -0.269 OA
BRANCH  14  16
ATOM     16  C   UNL     1       3.140   1.979   1.670  1.00  0.00     0.041 A 
ATOM     17  C   UNL     1       2.335   2.999   2.207  1.00  0.00     0.014 A 
ATOM     18  C   UNL     1       4.304   1.592   2.357  1.00  0.00     0.034 A 
ATOM     19  C   UNL     1       2.673   3.599   3.424  1.00  0.00     0.002 A 
ATOM     20  C   UNL     1       4.639   2.195   3.575  1.00  0.00     0.041 A 
ATOM     21  C   UNL     1       3.821   3.195   4.109  1.00  0.00     0.020 A 
ATOM     22  Cl  UNL     1       6.087   1.696   4.431  1.00  0.00    -0.084 Cl
ENDBRANCH  14  16
ENDBRANCH   2   8
TORSDOF 4
