REMARK SMILES COc1ccc(-c2nc(CCNC(=O)c3cncc(F)c3)co2)cc1
REMARK SMILES IDX 10 1 9 2 7 3 8 4 23 5 22 6 6 7 3 8 4 9 25 10 5 11 24 12 2 13
REMARK SMILES IDX 1 14 11 15 12 16 13 17 14 18 15 20 16 21 21 22 17 23 19 24
REMARK SMILES IDX 18 25 20 26
REMARK H PARENT 12 19
ROOT
ATOM      1  C   UNL     1       2.987   1.937   0.291  1.00  0.00     0.081 C 
ENDROOT
BRANCH   1   2
ATOM      2  C   UNL     1       1.581   1.787   0.790  1.00  0.00     0.081 A 
ATOM      3  C   UNL     1      -0.528   1.728   0.881  1.00  0.00     0.226 A 
ATOM      4  N   UNL     1       0.488   2.059   0.054  1.00  0.00    -0.214 NA
ATOM      5  O   UNL     1      -0.107   1.276   2.043  1.00  0.00    -0.444 OA
ATOM      6  C   UNL     1       1.202   1.295   2.018  1.00  0.00     0.221 A 
BRANCH   3   7
ATOM      7  C   UNL     1      -1.955   1.855   0.520  1.00  0.00     0.037 A 
ATOM      8  C   UNL     1      -4.683   2.089  -0.155  1.00  0.00     0.118 A 
ATOM      9  C   UNL     1      -3.687   2.459  -1.078  1.00  0.00     0.047 A 
ATOM     10  C   UNL     1      -4.302   1.603   1.101  1.00  0.00     0.047 A 
ATOM     11  C   UNL     1      -2.335   2.342  -0.741  1.00  0.00     0.017 A 
ATOM     12  C   UNL     1      -2.951   1.486   1.438  1.00  0.00     0.017 A 
BRANCH   8  13
ATOM     13  O   UNL     1      -6.052   2.187  -0.445  1.00  0.00    -0.497 OA
ATOM     14  C   UNL     1      -6.580   2.662  -1.679  1.00  0.00     0.278 C 
ENDBRANCH   8  13
ENDBRANCH   3   7
ENDBRANCH   1   2
BRANCH   1  15
ATOM     15  C   UNL     1       3.364   0.794  -0.658  1.00  0.00     0.122 C 
BRANCH  15  16
ATOM     16  N   UNL     1       3.401  -0.493   0.038  1.00  0.00    -0.352 N 
ATOM     17  C   UNL     1       3.640  -1.717  -0.673  1.00  0.00     0.252 C 
ATOM     18  O   UNL     1       4.025  -1.674  -1.874  1.00  0.00    -0.269 OA
ATOM     19  H   UNL     1       3.292  -0.519   1.076  1.00  0.00     0.163 HD
BRANCH  17  20
ATOM     20  C   UNL     1       3.456  -3.033  -0.016  1.00  0.00     0.061 A 
ATOM     21  C   UNL     1       4.123  -4.170  -0.504  1.00  0.00     0.125 A 
ATOM     22  C   UNL     1       2.596  -3.188   1.086  1.00  0.00     0.056 A 
ATOM     23  N   UNL     1       3.949  -5.380   0.093  1.00  0.00    -0.261 NA
ATOM     24  C   UNL     1       2.436  -4.441   1.680  1.00  0.00     0.142 A 
ATOM     25  C   UNL     1       3.130  -5.537   1.166  1.00  0.00     0.150 A 
ATOM     26  F   UNL     1       1.607  -4.594   2.741  1.00  0.00    -0.205 F 
ENDBRANCH  17  20
ENDBRANCH  15  16
ENDBRANCH   1  15
TORSDOF 6
