REMARK SMILES COC(=O)c1ccc(Cn2cc(Cn3cccn3)nn2)cc1C
REMARK SMILES IDX 5 1 6 2 7 3 8 4 21 5 22 6 23 7 3 8 4 9 2 10 1 11 9 12 10 13
REMARK SMILES IDX 11 14 20 15 12 16 19 17 13 18 14 19 15 20 18 21 16 22 17 23
REMARK H PARENT
ROOT
ATOM      1  C   UNL     1       1.666  -1.369   1.731  1.00  0.00     0.063 A 
ATOM      2  C   UNL     1       1.277  -0.323   2.589  1.00  0.00     0.016 A 
ATOM      3  C   UNL     1      -0.068   0.013   2.746  1.00  0.00     0.006 A 
ATOM      4  C   UNL     1      -1.058  -0.697   2.061  1.00  0.00    -0.026 A 
ATOM      5  C   UNL     1      -0.686  -1.723   1.183  1.00  0.00     0.010 A 
ATOM      6  C   UNL     1       0.666  -2.062   0.997  1.00  0.00    -0.036 A 
ATOM      7  C   UNL     1       1.002  -3.147   0.006  1.00  0.00     0.045 C 
ENDROOT
BRANCH   1   8
ATOM      8  C   UNL     1       3.112  -1.699   1.630  1.00  0.00     0.338 C 
ATOM      9  O   UNL     1       3.974  -0.814   1.892  1.00  0.00    -0.246 OA
BRANCH   8  10
ATOM     10  O   UNL     1       3.526  -2.989   1.283  1.00  0.00    -0.465 OA
ATOM     11  C   UNL     1       4.896  -3.354   1.175  1.00  0.00     0.282 C 
ENDBRANCH   8  10
ENDBRANCH   1   8
BRANCH   4  12
ATOM     12  C   UNL     1      -2.503  -0.302   2.193  1.00  0.00     0.181 C 
BRANCH  12  13
ATOM     13  N   UNL     1      -2.848   0.657   1.150  1.00  0.00    -0.248 N 
ATOM     14  C   UNL     1      -3.208   0.370  -0.112  1.00  0.00     0.137 A 
ATOM     15  N   UNL     1      -2.705   1.968   1.262  1.00  0.00    -0.067 NA
ATOM     16  C   UNL     1      -3.308   1.581  -0.760  1.00  0.00     0.104 A 
ATOM     17  N   UNL     1      -2.980   2.560   0.107  1.00  0.00    -0.133 NA
BRANCH  16  18
ATOM     18  C   UNL     1      -3.564   1.789  -2.217  1.00  0.00     0.203 C 
BRANCH  18  19
ATOM     19  N   UNL     1      -2.326   1.604  -2.966  1.00  0.00    -0.267 N 
ATOM     20  C   UNL     1      -1.833   0.429  -3.400  1.00  0.00     0.109 A 
ATOM     21  N   UNL     1      -1.470   2.578  -3.230  1.00  0.00    -0.181 NA
ATOM     22  C   UNL     1      -0.610   0.665  -3.988  1.00  0.00     0.042 A 
ATOM     23  C   UNL     1      -0.416   2.028  -3.864  1.00  0.00     0.135 A 
ENDBRANCH  18  19
ENDBRANCH  16  18
ENDBRANCH  12  13
ENDBRANCH   4  12
TORSDOF 6
