REMARK SMILES O=C(Nc1nnc2ccccn12)c1cccc(Nc2ccccc2)c1
REMARK SMILES IDX 13 1 14 2 15 3 16 4 17 5 25 6 2 7 1 8 3 9 4 11 5 12 12 13
REMARK SMILES IDX 6 14 11 15 7 16 10 17 8 18 9 19 18 20 19 22 20 23 24 24
REMARK SMILES IDX 21 25 23 26 22 27
REMARK H PARENT 3 10 18 21
ROOT
ATOM      1  C   UNL     1      -1.343   1.175  -0.303  1.00  0.00     0.042 A 
ATOM      2  C   UNL     1      -2.200   2.203  -0.735  1.00  0.00     0.014 A 
ATOM      3  C   UNL     1      -3.421   1.899  -1.341  1.00  0.00     0.003 A 
ATOM      4  C   UNL     1      -3.804   0.569  -1.520  1.00  0.00     0.026 A 
ATOM      5  C   UNL     1      -2.973  -0.473  -1.086  1.00  0.00     0.039 A 
ATOM      6  C   UNL     1      -1.732  -0.164  -0.501  1.00  0.00     0.039 A 
ENDROOT
BRANCH   1   7
ATOM      7  C   UNL     1      -0.041   1.502   0.325  1.00  0.00     0.258 C 
ATOM      8  O   UNL     1       0.443   2.659   0.190  1.00  0.00    -0.269 OA
ATOM      9  N   UNL     1       0.655   0.532   1.122  1.00  0.00    -0.290 N 
ATOM     10  H   UNL     1       0.096  -0.186   1.635  1.00  0.00     0.173 HD
BRANCH   9  11
ATOM     11  C   UNL     1       2.040   0.660   1.466  1.00  0.00     0.235 A 
ATOM     12  N   UNL     1       2.530   0.377   2.693  1.00  0.00    -0.111 NA
ATOM     13  N   UNL     1       3.025   1.018   0.622  1.00  0.00    -0.269 N 
ATOM     14  N   UNL     1       3.844   0.574   2.647  1.00  0.00    -0.128 NA
ATOM     15  C   UNL     1       3.052   1.300  -0.707  1.00  0.00     0.096 A 
ATOM     16  C   UNL     1       4.124   0.961   1.388  1.00  0.00     0.162 A 
ATOM     17  C   UNL     1       4.293   1.597  -1.292  1.00  0.00     0.019 A 
ATOM     18  C   UNL     1       5.383   1.243   0.864  1.00  0.00     0.050 A 
ATOM     19  C   UNL     1       5.458   1.573  -0.499  1.00  0.00     0.005 A 
ENDBRANCH   9  11
ENDBRANCH   1   7
BRANCH   5  20
ATOM     20  N   UNL     1      -3.373  -1.836  -1.310  1.00  0.00    -0.356 N 
ATOM     21  H   UNL     1      -3.972  -2.038  -2.143  1.00  0.00     0.167 HD
BRANCH  20  22
ATOM     22  C   UNL     1      -3.005  -2.940  -0.465  1.00  0.00     0.038 A 
ATOM     23  C   UNL     1      -2.882  -4.223  -1.020  1.00  0.00     0.026 A 
ATOM     24  C   UNL     1      -2.826  -2.773   0.921  1.00  0.00     0.026 A 
ATOM     25  C   UNL     1      -2.548  -5.314  -0.213  1.00  0.00     0.002 A 
ATOM     26  C   UNL     1      -2.492  -3.867   1.726  1.00  0.00     0.002 A 
ATOM     27  C   UNL     1      -2.349  -5.136   1.159  1.00  0.00     0.000 A 
ENDBRANCH  20  22
ENDBRANCH   5  20
TORSDOF 4
