REMARK SMILES C[C@@H](NCc1nc2sc3c(c2c(=O)[nH]1)CCC3)c1cc(Br)cs1
REMARK SMILES IDX 3 1 2 3 1 4 18 5 19 6 23 7 20 8 22 9 21 10 4 11 5 12 6 13
REMARK SMILES IDX 14 14 7 15 12 16 8 17 11 18 13 19 9 20 10 21 17 22 15 23
REMARK SMILES IDX 16 24
REMARK H PARENT 3 2 14 25
ROOT
ATOM      1  N   UNL     1       1.795  -1.475   0.394  1.00  0.00    -0.302 NA
ATOM      2  H   UNL     1       1.930  -0.827   1.207  1.00  0.00     0.123 HD
ENDROOT
BRANCH   1   3
ATOM      3  C   UNL     1       3.028  -2.250   0.169  1.00  0.00     0.091 C 
ATOM      4  C   UNL     1       3.204  -3.270   1.294  1.00  0.00     0.030 C 
BRANCH   3   5
ATOM      5  C   UNL     1       4.242  -1.358   0.072  1.00  0.00     0.022 A 
ATOM      6  C   UNL     1       4.723  -0.500   1.056  1.00  0.00     0.032 A 
ATOM      7  S   UNL     1       5.231  -1.222  -1.282  1.00  0.00    -0.146 S 
ATOM      8  C   UNL     1       5.861   0.210   0.656  1.00  0.00     0.029 A 
ATOM      9  C   UNL     1       6.281  -0.079  -0.636  1.00  0.00     0.080 A 
ATOM     10  Br  UNL     1       6.752   1.466   1.782  1.00  0.00    -0.050 Br
ENDBRANCH   3   5
ENDBRANCH   1   3
BRANCH   1  11
ATOM     11  C   UNL     1       1.425  -0.683  -0.785  1.00  0.00     0.157 C 
BRANCH  11  12
ATOM     12  C   UNL     1       0.085  -0.050  -0.565  1.00  0.00     0.124 A 
ATOM     13  N   UNL     1       0.017   1.258  -0.176  1.00  0.00    -0.222 NA
ATOM     14  N   UNL     1      -1.061  -0.792  -0.702  1.00  0.00    -0.309 N 
ATOM     15  C   UNL     1      -1.196   1.814   0.051  1.00  0.00     0.131 A 
ATOM     16  C   UNL     1      -2.293  -0.245  -0.475  1.00  0.00     0.259 A 
ATOM     17  S   UNL     1      -1.508   3.410   0.535  1.00  0.00    -0.120 S 
ATOM     18  C   UNL     1      -2.368   1.091  -0.090  1.00  0.00     0.080 A 
ATOM     19  O   UNL     1      -3.334  -0.942  -0.611  1.00  0.00    -0.269 OA
ATOM     20  C   UNL     1      -3.177   3.139   0.551  1.00  0.00     0.011 A 
ATOM     21  C   UNL     1      -3.484   1.871   0.201  1.00  0.00    -0.019 A 
ATOM     22  C   UNL     1      -4.348   3.970   0.870  1.00  0.00     0.047 C 
ATOM     23  C   UNL     1      -4.938   1.615   0.220  1.00  0.00     0.038 C 
ATOM     24  C   UNL     1      -5.526   2.985   0.654  1.00  0.00     0.010 C 
ATOM     25  H   UNL     1      -0.995  -1.797  -0.984  1.00  0.00     0.171 HD
ENDBRANCH  11  12
ENDBRANCH   1  11
TORSDOF 4
