REMARK SMILES CC(C)c1nnc2ccc(NC(=O)N3CCCc4ccccc4CC3)cn12
REMARK SMILES IDX 14 1 12 2 11 3 13 4 10 6 4 7 5 8 27 9 6 10 26 11 7 12 8 13
REMARK SMILES IDX 9 14 2 15 1 16 3 17 15 18 16 19 25 21 24 22 23 23 22 24
REMARK SMILES IDX 18 25 21 26 19 27 20 28 17 29
REMARK H PARENT 11 5
REMARK Flexibility Score:   60.900
ROOT
ATOM      1  N   UNL     1       3.306   0.478  -0.316  1.00  0.00    -0.324 N 
ENDROOT
BRANCH   1   2
ATOM      2  C   UNL     1       2.420   1.174   0.593  1.00  0.00     0.321 C 
ATOM      3  N   UNL     1       2.312   0.776   1.968  1.00  0.00    -0.306 N 
ATOM      4  O   UNL     1       1.743   2.150   0.181  1.00  0.00    -0.248 OA
ATOM      5  H   UNL     1       3.203   0.601   2.487  1.00  0.00     0.171 HD
BRANCH   3   6
ATOM      6  C   UNL     1       1.082   0.327   2.567  1.00  0.00     0.059 A 
ATOM      7  C   UNL     1      -2.599   0.242   2.332  1.00  0.00     0.140 A 
ATOM      8  N   UNL     1      -3.327  -0.515   3.185  1.00  0.00    -0.134 NA
ATOM      9  N   UNL     1      -1.288   0.143   2.620  1.00  0.00    -0.284 N 
ATOM     10  N   UNL     1      -2.478  -1.119   4.011  1.00  0.00    -0.130 NA
ATOM     11  C   UNL     1      -0.183   0.691   2.053  1.00  0.00     0.120 A 
ATOM     12  C   UNL     1      -1.249  -0.707   3.652  1.00  0.00     0.160 A 
ATOM     13  C   UNL     1      -0.043  -1.081   4.230  1.00  0.00     0.052 A 
ATOM     14  C   UNL     1       1.133  -0.552   3.675  1.00  0.00     0.031 A 
BRANCH   7  15
ATOM     15  C   UNL     1      -3.195   1.143   1.278  1.00  0.00     0.052 C 
ATOM     16  C   UNL     1      -3.561   2.496   1.898  1.00  0.00     0.016 C 
ATOM     17  C   UNL     1      -4.419   0.492   0.619  1.00  0.00     0.016 C 
ENDBRANCH   7  15
ENDBRANCH   3   6
ENDBRANCH   1   2
BRANCH   1  18
ATOM     18  C   UNL     1       3.692   1.124  -1.586  1.00  0.00     0.121 C 
BRANCH  18  19
ATOM     19  C   UNL     1       3.710   0.160  -2.781  1.00  0.00     0.026 CG0
ATOM     20  G   UNL     1       2.334  -0.399  -3.214  1.00  0.00     0.000 G0
ENDBRANCH  18  19
ENDBRANCH   1  18
BRANCH   1  21
ATOM     21  C   UNL     1       3.809  -0.875   0.011  1.00  0.00     0.126 C 
BRANCH  21  22
ATOM     22  C   UNL     1       2.990  -1.994  -0.674  1.00  0.00     0.057 C 
BRANCH  22  23
ATOM     23  C   UNL     1       1.587  -1.557  -1.014  1.00  0.00    -0.043 A 
ATOM     24  C   UNL     1       0.544  -1.913  -0.138  1.00  0.00     0.004 A 
ATOM     25  C   UNL     1       1.312  -0.711  -2.126  1.00  0.00    -0.045 A 
ATOM     26  C   UNL     1      -0.755  -1.466  -0.363  1.00  0.00     0.000 A 
ATOM     27  C   UNL     1      -0.006  -0.245  -2.309  1.00  0.00     0.004 A 
ATOM     28  C   UNL     1      -1.028  -0.620  -1.435  1.00  0.00     0.000 A 
BRANCH  25  29
ATOM     29  C   UNL     1       2.334  -0.399  -3.214  1.00  0.00     0.037 CG0
ATOM     30  G   UNL     1       3.710   0.160  -2.781  1.00  0.00     0.000 G0
ENDBRANCH  25  29
ENDBRANCH  22  23
ENDBRANCH  21  22
ENDBRANCH   1  21
TORSDOF 3
