REMARK SMILES O=C(Nc1cccc(CCO)c1)c1c[nH]c2ncnc(O)c12
REMARK SMILES IDX 4 1 5 2 6 3 7 4 8 5 12 6 3 7 1 8 2 9 13 11 14 12 22 13 15 14
REMARK SMILES IDX 20 15 16 16 19 17 17 18 18 19 21 21 9 23 10 24 11 25
REMARK H PARENT 3 10 15 20 21 22 11 26
ROOT
ATOM      1  C   UNL     1      -0.546  -1.270   1.124  1.00  0.00     0.041 A 
ATOM      2  C   UNL     1      -1.052  -2.361   1.846  1.00  0.00     0.026 A 
ATOM      3  C   UNL     1      -0.208  -3.129   2.652  1.00  0.00     0.002 A 
ATOM      4  C   UNL     1       1.147  -2.809   2.753  1.00  0.00     0.004 A 
ATOM      5  C   UNL     1       1.670  -1.714   2.048  1.00  0.00    -0.044 A 
ATOM      6  C   UNL     1       0.816  -0.938   1.248  1.00  0.00     0.030 A 
ENDROOT
BRANCH   1   7
ATOM      7  N   UNL     1      -1.442  -0.478   0.326  1.00  0.00    -0.322 N 
ATOM      8  O   UNL     1       0.019  -0.121  -1.469  1.00  0.00    -0.269 OA
ATOM      9  C   UNL     1      -1.061   0.181  -0.893  1.00  0.00     0.258 C 
ATOM     10  H   UNL     1      -2.442  -0.426   0.624  1.00  0.00     0.170 HD
BRANCH   9  11
ATOM     11  C   UNL     1      -1.978   1.138  -1.534  1.00  0.00     0.072 A 
ATOM     12  C   UNL     1      -3.353   0.954  -1.671  1.00  0.00     0.099 A 
ATOM     13  C   UNL     1      -1.677   2.277  -2.272  1.00  0.00     0.093 A 
ATOM     14  N   UNL     1      -3.884   1.909  -2.467  1.00  0.00    -0.345 N 
ATOM     15  C   UNL     1      -0.510   3.015  -2.517  1.00  0.00     0.224 A 
ATOM     16  C   UNL     1      -2.856   2.692  -2.827  1.00  0.00     0.145 A 
ATOM     17  N   UNL     1      -0.598   4.075  -3.373  1.00  0.00    -0.201 NA
ATOM     18  N   UNL     1      -2.929   3.754  -3.665  1.00  0.00    -0.218 NA
ATOM     19  C   UNL     1      -1.785   4.440  -3.948  1.00  0.00     0.228 A 
ATOM     20  H   UNL     1      -4.881   1.997  -2.764  1.00  0.00     0.167 HD
BRANCH  15  21
ATOM     21  O   UNL     1       0.705   2.750  -1.891  1.00  0.00    -0.493 OA
ATOM     22  H   UNL     1       0.784   2.144  -1.087  1.00  0.00     0.295 HD
ENDBRANCH  15  21
ENDBRANCH   9  11
ENDBRANCH   1   7
BRANCH   5  23
ATOM     23  C   UNL     1       3.122  -1.339   2.199  1.00  0.00     0.063 C 
BRANCH  23  24
ATOM     24  C   UNL     1       3.340  -0.443   3.418  1.00  0.00     0.161 C 
BRANCH  24  25
ATOM     25  O   UNL     1       2.677   0.779   3.244  1.00  0.00    -0.396 OA
ATOM     26  H   UNL     1       2.850   1.305   4.067  1.00  0.00     0.210 HD
ENDBRANCH  24  25
ENDBRANCH  23  24
ENDBRANCH   5  23
TORSDOF 6
