REMARK SMILES O=C(N[C@@H]1C[C@H]2CNC[C@H]2C1)c1ccc(OCC2CCCCC2)cc1
REMARK SMILES IDX 12 1 13 2 14 3 15 4 24 5 25 6 2 7 1 8 3 9 4 11 11 12 5 13
REMARK SMILES IDX 10 14 6 15 9 16 7 17 8 18 16 20 17 21 18 22 19 23 23 24
REMARK SMILES IDX 20 25 22 26 21 27
REMARK H PARENT 3 10 8 19
ROOT
ATOM      1  C   UNL     1       1.105   0.250  -1.818  1.00  0.00     0.040 A 
ATOM      2  C   UNL     1       0.733  -0.637  -2.843  1.00  0.00     0.017 A 
ATOM      3  C   UNL     1       0.814  -2.018  -2.654  1.00  0.00     0.047 A 
ATOM      4  C   UNL     1       1.256  -2.547  -1.440  1.00  0.00     0.119 A 
ATOM      5  C   UNL     1       1.655  -1.667  -0.416  1.00  0.00     0.047 A 
ATOM      6  C   UNL     1       1.582  -0.284  -0.606  1.00  0.00     0.017 A 
ENDROOT
BRANCH   1   7
ATOM      7  C   UNL     1       1.020   1.716  -2.043  1.00  0.00     0.251 C 
ATOM      8  O   UNL     1       0.912   2.151  -3.222  1.00  0.00    -0.269 OA
ATOM      9  N   UNL     1       1.039   2.647  -0.950  1.00  0.00    -0.349 N 
ATOM     10  H   UNL     1       0.864   2.297   0.019  1.00  0.00     0.164 HD
BRANCH   9  11
ATOM     11  C   UNL     1       0.994   4.098  -1.171  1.00  0.00     0.083 C 
ATOM     12  C   UNL     1      -0.445   4.593  -1.117  1.00  0.00     0.030 C 
ATOM     13  C   UNL     1       1.703   4.840  -0.041  1.00  0.00     0.030 C 
ATOM     14  C   UNL     1      -0.723   4.888   0.363  1.00  0.00     0.009 C 
ATOM     15  C   UNL     1       0.629   5.125   1.024  1.00  0.00     0.009 C 
ATOM     16  C   UNL     1      -1.510   6.179   0.582  1.00  0.00     0.085 C 
ATOM     17  C   UNL     1       0.597   6.583   1.498  1.00  0.00     0.085 C 
ATOM     18  N   UNL     1      -0.541   7.242   0.851  1.00  0.00    -0.316 NA
ATOM     19  H   UNL     1      -0.208   7.614  -0.074  1.00  0.00     0.122 HD
ENDBRANCH   9  11
ENDBRANCH   1   7
BRANCH   4  20
ATOM     20  O   UNL     1       1.300  -3.945  -1.313  1.00  0.00    -0.493 OA
BRANCH  20  21
ATOM     21  C   UNL     1       1.350  -4.688  -0.092  1.00  0.00     0.233 C 
BRANCH  21  22
ATOM     22  C   UNL     1      -0.071  -4.917   0.469  1.00  0.00     0.027 C 
ATOM     23  C   UNL     1      -0.073  -6.030   1.534  1.00  0.00     0.007 C 
ATOM     24  C   UNL     1      -0.688  -3.617   1.047  1.00  0.00     0.007 C 
ATOM     25  C   UNL     1      -1.508  -6.386   1.986  1.00  0.00     0.000 C 
ATOM     26  C   UNL     1      -1.821  -3.868   2.066  1.00  0.00     0.000 C 
ATOM     27  C   UNL     1      -2.504  -5.221   1.846  1.00  0.00     0.000 C 
ENDBRANCH  21  22
ENDBRANCH  20  21
ENDBRANCH   4  20
TORSDOF 5
