REMARK SMILES CSc1cc(C)ccc1C(=O)Nc1[nH]nnc1C(=O)N1CCCC1
REMARK SMILES IDX 3 1 4 2 5 3 6 4 7 5 8 6 9 7 2 8 1 9 10 10 11 11 12 12 13 14
REMARK SMILES IDX 14 15 17 16 15 17 16 18 18 20 19 21 20 22 21 23 24 24 22 25
REMARK SMILES IDX 23 26
REMARK H PARENT 12 13 14 19
ROOT
ATOM      1  C   UNL     1      -2.324   0.577  -2.901  1.00  0.00     0.020 A 
ATOM      2  C   UNL     1      -3.115  -0.361  -3.578  1.00  0.00     0.019 A 
ATOM      3  C   UNL     1      -2.764  -1.718  -3.586  1.00  0.00    -0.050 A 
ATOM      4  C   UNL     1      -3.641  -2.720  -4.277  1.00  0.00     0.044 C 
ATOM      5  C   UNL     1      -1.627  -2.139  -2.886  1.00  0.00     0.004 A 
ATOM      6  C   UNL     1      -0.830  -1.211  -2.212  1.00  0.00     0.015 A 
ATOM      7  C   UNL     1      -1.162   0.154  -2.214  1.00  0.00     0.053 A 
ENDROOT
BRANCH   1   8
ATOM      8  S   UNL     1      -2.861   2.297  -2.901  1.00  0.00    -0.129 SA
ATOM      9  C   UNL     1      -3.829   2.121  -1.369  1.00  0.00     0.091 C 
ENDBRANCH   1   8
BRANCH   7  10
ATOM     10  C   UNL     1      -0.287   1.113  -1.501  1.00  0.00     0.258 C 
ATOM     11  O   UNL     1       0.032   2.195  -2.063  1.00  0.00    -0.269 OA
ATOM     12  N   UNL     1       0.228   0.795  -0.198  1.00  0.00    -0.305 N 
ATOM     13  H   UNL     1       0.040  -0.152   0.198  1.00  0.00     0.171 HD
BRANCH  12  14
ATOM     14  C   UNL     1       0.961   1.728   0.610  1.00  0.00     0.162 A 
ATOM     15  N   UNL     1       0.801   3.062   0.591  1.00  0.00    -0.242 N 
ATOM     16  C   UNL     1       1.837   1.430   1.636  1.00  0.00     0.194 A 
ATOM     17  N   UNL     1       1.560   3.565   1.551  1.00  0.00    -0.067 NA
ATOM     18  N   UNL     1       2.204   2.601   2.196  1.00  0.00    -0.123 NA
ATOM     19  H   UNL     1       0.167   3.626  -0.015  1.00  0.00     0.194 HD
BRANCH  16  20
ATOM     20  C   UNL     1       2.356   0.102   2.032  1.00  0.00     0.278 C 
ATOM     21  O   UNL     1       2.235  -0.862   1.228  1.00  0.00    -0.267 OA
ATOM     22  N   UNL     1       3.009  -0.119   3.297  1.00  0.00    -0.337 N 
ATOM     23  C   UNL     1       3.625  -1.389   3.643  1.00  0.00     0.120 C 
ATOM     24  C   UNL     1       3.028   0.826   4.402  1.00  0.00     0.120 C 
ATOM     25  C   UNL     1       4.233  -1.190   5.024  1.00  0.00     0.023 C 
ATOM     26  C   UNL     1       3.554   0.048   5.600  1.00  0.00     0.023 C 
ENDBRANCH  16  20
ENDBRANCH  12  14
ENDBRANCH   7  10
TORSDOF 4
