REMARK SMILES O=C(c1ccc2c(c1)[nH]c(=O)n2C1CCCC1)N1CC[C@@H](Oc2cccc(F)c2)C1
REMARK SMILES IDX 18 1 19 2 20 3 21 4 30 5 2 6 1 7 3 8 4 9 8 10 5 11 7 12 6 13
REMARK SMILES IDX 9 14 12 15 10 16 11 17 13 19 14 20 17 21 15 22 16 23 22 24
REMARK SMILES IDX 23 25 24 26 29 27 25 28 27 29 26 30 28 31
REMARK H PARENT 9 18
ROOT
ATOM      1  N   UNL     1       1.534  -3.434   1.455  1.00  0.00    -0.335 N 
ATOM      2  C   UNL     1       2.381  -4.543   1.859  1.00  0.00     0.124 C 
ATOM      3  C   UNL     1       3.034  -5.055   0.581  1.00  0.00     0.068 C 
ATOM      4  C   UNL     1       2.841  -3.954  -0.463  1.00  0.00     0.194 C 
ATOM      5  C   UNL     1       1.672  -3.109   0.044  1.00  0.00     0.165 C 
ENDROOT
BRANCH   1   6
ATOM      6  C   UNL     1       0.495  -2.904   2.298  1.00  0.00     0.254 C 
ATOM      7  O   UNL     1       0.057  -3.598   3.255  1.00  0.00    -0.269 OA
BRANCH   6   8
ATOM      8  C   UNL     1      -0.076  -1.561   2.071  1.00  0.00     0.042 A 
ATOM      9  C   UNL     1      -1.472  -1.353   2.213  1.00  0.00     0.016 A 
ATOM     10  C   UNL     1       0.764  -0.467   1.774  1.00  0.00     0.042 A 
ATOM     11  C   UNL     1      -2.034  -0.078   2.015  1.00  0.00     0.029 A 
ATOM     12  C   UNL     1       0.172   0.776   1.572  1.00  0.00     0.067 A 
ATOM     13  C   UNL     1      -1.179   0.970   1.664  1.00  0.00     0.069 A 
ATOM     14  N   UNL     1       0.783   1.945   1.337  1.00  0.00    -0.306 N 
ATOM     15  N   UNL     1      -1.467   2.279   1.454  1.00  0.00    -0.289 N 
ATOM     16  C   UNL     1      -0.230   2.841   1.294  1.00  0.00     0.326 A 
ATOM     17  O   UNL     1      -0.023   4.076   1.161  1.00  0.00    -0.248 OA
ATOM     18  H   UNL     1       1.807   2.130   1.256  1.00  0.00     0.171 HD
BRANCH  15  19
ATOM     19  C   UNL     1      -2.803   2.915   1.537  1.00  0.00     0.092 C 
ATOM     20  C   UNL     1      -2.819   4.404   1.195  1.00  0.00     0.025 C 
ATOM     21  C   UNL     1      -3.803   2.300   0.547  1.00  0.00     0.025 C 
ATOM     22  C   UNL     1      -4.257   4.691   0.812  1.00  0.00     0.002 C 
ATOM     23  C   UNL     1      -4.743   3.428   0.116  1.00  0.00     0.002 C 
ENDBRANCH  15  19
ENDBRANCH   6   8
ENDBRANCH   1   6
BRANCH   4  24
ATOM     24  O   UNL     1       2.557  -4.529  -1.741  1.00  0.00    -0.488 OA
BRANCH  24  25
ATOM     25  C   UNL     1       2.470  -3.820  -2.950  1.00  0.00     0.122 A 
ATOM     26  C   UNL     1       2.067  -4.515  -4.099  1.00  0.00     0.046 A 
ATOM     27  C   UNL     1       2.772  -2.446  -3.052  1.00  0.00     0.085 A 
ATOM     28  C   UNL     1       1.958  -3.857  -5.329  1.00  0.00     0.007 A 
ATOM     29  C   UNL     1       2.659  -1.789  -4.283  1.00  0.00     0.126 A 
ATOM     30  C   UNL     1       2.252  -2.494  -5.420  1.00  0.00     0.039 A 
ATOM     31  F   UNL     1       2.946  -0.468  -4.375  1.00  0.00    -0.207 F 
ENDBRANCH  24  25
ENDBRANCH   4  24
TORSDOF 5
