REMARK SMILES O=C(c1ccc(-n2cnc3ccccc32)cc1)N1CCC[C@](O)(CO)C1
REMARK SMILES IDX 18 1 19 2 20 3 21 4 22 5 26 6 2 7 1 8 3 9 4 10 17 11 5 12
REMARK SMILES IDX 16 13 6 14 7 15 8 16 15 17 9 18 14 19 10 20 13 21 11 22
REMARK SMILES IDX 12 23 23 24 24 26 25 27
REMARK H PARENT 23 25 25 28
ROOT
ATOM      1  N   UNL     1      -1.378   1.907   1.835  1.00  0.00    -0.336 N 
ATOM      2  C   UNL     1      -0.125   1.661   2.570  1.00  0.00     0.120 C 
ATOM      3  C   UNL     1      -0.361   1.571   4.081  1.00  0.00     0.025 C 
ATOM      4  C   UNL     1      -1.573   0.681   4.361  1.00  0.00     0.041 C 
ATOM      5  C   UNL     1      -2.885   1.254   3.732  1.00  0.00     0.105 C 
ATOM      6  C   UNL     1      -2.600   2.259   2.573  1.00  0.00     0.157 C 
ENDROOT
BRANCH   1   7
ATOM      7  C   UNL     1      -1.314   2.168   0.420  1.00  0.00     0.253 C 
ATOM      8  O   UNL     1      -1.928   3.162  -0.055  1.00  0.00    -0.269 OA
BRANCH   7   9
ATOM      9  C   UNL     1      -0.540   1.296  -0.492  1.00  0.00     0.040 A 
ATOM     10  C   UNL     1       0.050   1.832  -1.649  1.00  0.00     0.016 A 
ATOM     11  C   UNL     1      -0.427  -0.082  -0.245  1.00  0.00     0.016 A 
ATOM     12  C   UNL     1       0.769   1.011  -2.522  1.00  0.00     0.027 A 
ATOM     13  C   UNL     1       0.292  -0.902  -1.119  1.00  0.00     0.027 A 
ATOM     14  C   UNL     1       0.911  -0.359  -2.255  1.00  0.00     0.047 A 
BRANCH  14  15
ATOM     15  N   UNL     1       1.641  -1.200  -3.165  1.00  0.00    -0.299 N 
ATOM     16  C   UNL     1       1.566  -1.182  -4.520  1.00  0.00     0.205 A 
ATOM     17  C   UNL     1       2.533  -2.169  -2.893  1.00  0.00     0.073 A 
ATOM     18  N   UNL     1       2.366  -2.105  -5.115  1.00  0.00    -0.236 NA
ATOM     19  C   UNL     1       3.053  -2.581  -1.662  1.00  0.00     0.029 A 
ATOM     20  C   UNL     1       2.961  -2.710  -4.071  1.00  0.00     0.089 A 
ATOM     21  C   UNL     1       4.013  -3.609  -1.670  1.00  0.00     0.002 A 
ATOM     22  C   UNL     1       3.913  -3.727  -4.113  1.00  0.00     0.030 A 
ATOM     23  C   UNL     1       4.439  -4.183  -2.890  1.00  0.00     0.002 A 
ENDBRANCH  14  15
ENDBRANCH   7   9
ENDBRANCH   1   7
BRANCH   5  24
ATOM     24  O   UNL     1      -3.627   1.917   4.730  1.00  0.00    -0.386 OA
ATOM     25  H   UNL     1      -3.049   2.620   5.128  1.00  0.00     0.211 HD
ENDBRANCH   5  24
BRANCH   5  26
ATOM     26  C   UNL     1      -3.767   0.093   3.218  1.00  0.00     0.193 C 
BRANCH  26  27
ATOM     27  O   UNL     1      -3.187  -0.535   2.103  1.00  0.00    -0.393 OA
ATOM     28  H   UNL     1      -2.812  -1.400   2.412  1.00  0.00     0.210 HD
ENDBRANCH  26  27
ENDBRANCH   5  26
TORSDOF 6
