REMARK SMILES O=c1ccc(-c2nnco2)cn1Cc1ncnn1-c1ccccc1
REMARK SMILES IDX 13 1 12 2 1 3 2 4 3 5 4 6 11 7 5 8 6 9 7 10 10 11 8 12 9 13
REMARK SMILES IDX 14 14 15 15 18 16 16 17 17 18 19 19 20 20 24 21 21 22 23 23
REMARK SMILES IDX 22 24
REMARK H PARENT
ROOT
ATOM      1  C   UNL     1       1.641  -1.335  -0.742  1.00  0.00     0.202 C 
ENDROOT
BRANCH   1   2
ATOM      2  N   UNL     1       0.222  -1.127  -1.097  1.00  0.00    -0.307 N 
ATOM      3  O   UNL     1      -0.467  -2.990   0.052  1.00  0.00    -0.269 OA
ATOM      4  C   UNL     1      -0.757  -1.985  -0.653  1.00  0.00     0.250 A 
ATOM      5  C   UNL     1      -2.096  -1.755  -0.975  1.00  0.00     0.072 A 
ATOM      6  C   UNL     1      -2.439  -0.664  -1.768  1.00  0.00     0.021 A 
ATOM      7  C   UNL     1      -0.106  -0.076  -1.913  1.00  0.00     0.103 A 
ATOM      8  C   UNL     1      -1.442   0.187  -2.253  1.00  0.00     0.055 A 
BRANCH   8   9
ATOM      9  C   UNL     1      -1.795   1.341  -3.103  1.00  0.00     0.248 A 
ATOM     10  N   UNL     1      -0.906   2.217  -3.609  1.00  0.00    -0.108 NA
ATOM     11  O   UNL     1      -3.018   1.651  -3.464  1.00  0.00    -0.423 OA
ATOM     12  N   UNL     1      -1.608   3.097  -4.306  1.00  0.00    -0.116 NA
ATOM     13  C   UNL     1      -2.898   2.728  -4.201  1.00  0.00     0.333 A 
ENDBRANCH   8   9
ENDBRANCH   1   2
BRANCH   1  14
ATOM     14  C   UNL     1       2.246  -0.094  -0.136  1.00  0.00     0.152 A 
ATOM     15  N   UNL     1       3.368   0.481  -0.613  1.00  0.00    -0.218 NA
ATOM     16  N   UNL     1       1.710   0.637   0.863  1.00  0.00    -0.216 N 
ATOM     17  C   UNL     1       3.471   1.592   0.148  1.00  0.00     0.246 A 
ATOM     18  N   UNL     1       2.466   1.704   1.039  1.00  0.00    -0.154 NA
BRANCH  16  19
ATOM     19  C   UNL     1       0.502   0.390   1.593  1.00  0.00     0.067 A 
ATOM     20  C   UNL     1      -0.499   1.371   1.642  1.00  0.00     0.028 A 
ATOM     21  C   UNL     1       0.312  -0.825   2.270  1.00  0.00     0.028 A 
ATOM     22  C   UNL     1      -1.690   1.127   2.332  1.00  0.00     0.002 A 
ATOM     23  C   UNL     1      -0.880  -1.065   2.961  1.00  0.00     0.002 A 
ATOM     24  C   UNL     1      -1.882  -0.092   2.989  1.00  0.00     0.000 A 
ENDBRANCH  16  19
ENDBRANCH   1  14
TORSDOF 4
