REMARK SMILES O=C1N[C@@]2(CCc3ccccc32)C(=O)N1Cc1ncc(Cl)cc1Cl
REMARK SMILES IDX 16 1 15 2 1 3 2 4 3 5 4 6 13 7 5 8 12 9 14 10 6 11 11 12
REMARK SMILES IDX 7 13 10 14 8 15 9 16 17 18 18 19 23 20 19 21 22 22 20 23
REMARK SMILES IDX 24 24 21 25
REMARK H PARENT 3 17
ROOT
ATOM      1  C   UNL     1      -1.080   1.549  -1.350  1.00  0.00     0.188 C 
ENDROOT
BRANCH   1   2
ATOM      2  N   UNL     1      -0.664   0.150  -1.251  1.00  0.00    -0.256 N 
ATOM      3  O   UNL     1      -2.684  -0.875  -0.576  1.00  0.00    -0.248 OA
ATOM      4  C   UNL     1      -1.440  -0.933  -0.760  1.00  0.00     0.325 C 
ATOM      5  N   UNL     1      -0.663  -2.086  -0.463  1.00  0.00    -0.319 N 
ATOM      6  C   UNL     1       0.738  -1.762  -0.730  1.00  0.00     0.147 C 
ATOM      7  C   UNL     1       0.674  -0.333  -1.197  1.00  0.00     0.261 C 
ATOM      8  C   UNL     1       1.366  -2.722  -1.771  1.00  0.00     0.048 C 
ATOM      9  C   UNL     1       1.573  -1.927   0.487  1.00  0.00    -0.010 A 
ATOM     10  O   UNL     1       1.678   0.371  -1.490  1.00  0.00    -0.271 OA
ATOM     11  C   UNL     1       2.605  -3.355  -1.106  1.00  0.00     0.039 C 
ATOM     12  C   UNL     1       1.400  -1.305   1.728  1.00  0.00     0.007 A 
ATOM     13  C   UNL     1       2.603  -2.810   0.274  1.00  0.00    -0.042 A 
ATOM     14  C   UNL     1       2.305  -1.596   2.761  1.00  0.00     0.000 A 
ATOM     15  C   UNL     1       3.515  -3.112   1.289  1.00  0.00     0.004 A 
ATOM     16  C   UNL     1       3.361  -2.498   2.541  1.00  0.00     0.000 A 
ATOM     17  H   UNL     1      -1.027  -2.985  -0.075  1.00  0.00     0.166 HD
ENDBRANCH   1   2
BRANCH   1  18
ATOM     18  C   UNL     1      -2.227   1.688  -2.311  1.00  0.00     0.079 A 
ATOM     19  N   UNL     1      -3.466   1.969  -1.820  1.00  0.00    -0.256 NA
ATOM     20  C   UNL     1      -2.056   1.507  -3.699  1.00  0.00     0.065 A 
ATOM     21  C   UNL     1      -4.552   2.090  -2.627  1.00  0.00     0.132 A 
ATOM     22  C   UNL     1      -3.164   1.628  -4.541  1.00  0.00     0.044 A 
ATOM     23  C   UNL     1      -4.420   1.922  -4.007  1.00  0.00     0.060 A 
ATOM     24  Cl  UNL     1      -0.487   1.130  -4.403  1.00  0.00    -0.082 Cl
ATOM     25  Cl  UNL     1      -5.817   2.074  -5.056  1.00  0.00    -0.083 Cl
ENDBRANCH   1  18
TORSDOF 2
