REMARK SMILES CCCn1nc(NCc2nc(CC3CC3)no2)c2ccccc21
REMARK SMILES IDX 7 1 6 3 4 4 5 5 23 6 22 7 18 8 21 9 19 10 20 11 3 12 2 13
REMARK SMILES IDX 1 14 8 15 9 16 10 17 17 18 11 19 16 20 12 21 13 22 14 23
REMARK SMILES IDX 15 24
REMARK H PARENT 7 2
ROOT
ATOM      1  N   UNL     1       0.095   0.128   2.824  1.00  0.00    -0.359 N 
ATOM      2  H   UNL     1       0.898   0.333   3.459  1.00  0.00     0.162 HD
ENDROOT
BRANCH   1   3
ATOM      3  C   UNL     1       0.257  -0.831   1.772  1.00  0.00     0.156 A 
ATOM      4  N   UNL     1      -0.215  -2.090   0.072  1.00  0.00    -0.263 N 
ATOM      5  N   UNL     1      -0.734  -1.223   0.936  1.00  0.00    -0.154 NA
ATOM      6  C   UNL     1       1.098  -2.244   0.345  1.00  0.00     0.070 A 
ATOM      7  C   UNL     1       2.049  -3.027  -0.313  1.00  0.00     0.029 A 
ATOM      8  C   UNL     1       1.430  -1.464   1.419  1.00  0.00     0.044 A 
ATOM      9  C   UNL     1       3.370  -2.993   0.171  1.00  0.00     0.002 A 
ATOM     10  C   UNL     1       2.729  -1.404   1.921  1.00  0.00     0.014 A 
ATOM     11  C   UNL     1       3.709  -2.187   1.282  1.00  0.00     0.001 A 
BRANCH   4  12
ATOM     12  C   UNL     1      -0.971  -2.681  -1.031  1.00  0.00     0.145 C 
BRANCH  12  13
ATOM     13  C   UNL     1      -0.734  -1.912  -2.336  1.00  0.00     0.020 C 
ATOM     14  C   UNL     1      -1.248  -0.476  -2.262  1.00  0.00     0.006 C 
ENDBRANCH  12  13
ENDBRANCH   4  12
ENDBRANCH   1   3
BRANCH   1  15
ATOM     15  C   UNL     1      -1.159   0.848   3.026  1.00  0.00     0.215 C 
BRANCH  15  16
ATOM     16  C   UNL     1      -1.330   1.885   1.964  1.00  0.00     0.245 A 
ATOM     17  N   UNL     1      -1.870   1.643   0.754  1.00  0.00    -0.195 NA
ATOM     18  O   UNL     1      -0.936   3.130   2.079  1.00  0.00    -0.337 OA
ATOM     19  C   UNL     1      -1.768   2.857   0.175  1.00  0.00     0.172 A 
ATOM     20  N   UNL     1      -1.192   3.771   0.980  1.00  0.00    -0.062 NA
BRANCH  19  21
ATOM     21  C   UNL     1      -2.195   3.143  -1.228  1.00  0.00     0.084 C 
BRANCH  21  22
ATOM     22  C   UNL     1      -0.964   3.279  -2.130  1.00  0.00    -0.003 C 
ATOM     23  C   UNL     1      -1.216   3.999  -3.446  1.00  0.00     0.004 C 
ATOM     24  C   UNL     1      -0.445   4.695  -2.334  1.00  0.00     0.004 C 
ENDBRANCH  21  22
ENDBRANCH  19  21
ENDBRANCH  15  16
ENDBRANCH   1  15
TORSDOF 7
