REMARK SMILES O=S1(=O)CCCN1c1cccc(CNc2ncnc3nc[nH]c23)c1
REMARK SMILES IDX 13 1 12 2 8 3 9 4 24 5 10 6 11 7 7 8 1 9 2 10 3 11 4 12 5 13
REMARK SMILES IDX 6 14 14 15 15 17 16 18 23 19 17 20 22 21 19 22 18 23 21 24
REMARK SMILES IDX 20 25
REMARK H PARENT 14 16 22 26
ROOT
ATOM      1  C   UNL     1       0.182   1.152  -2.295  1.00  0.00     0.150 C 
ENDROOT
BRANCH   1   2
ATOM      2  C   UNL     1      -0.160   1.285  -0.835  1.00  0.00    -0.027 A 
ATOM      3  C   UNL     1       0.193   0.630   1.496  1.00  0.00     0.052 A 
ATOM      4  C   UNL     1      -0.864   1.482   1.871  1.00  0.00     0.027 A 
ATOM      5  C   UNL     1       0.534   0.540   0.132  1.00  0.00     0.032 A 
ATOM      6  C   UNL     1      -1.556   2.224   0.910  1.00  0.00     0.003 A 
ATOM      7  C   UNL     1      -1.208   2.125  -0.437  1.00  0.00     0.006 A 
BRANCH   3   8
ATOM      8  N   UNL     1       0.902  -0.150   2.486  1.00  0.00    -0.270 N 
ATOM      9  O   UNL     1      -0.508  -0.293   4.741  1.00  0.00    -0.206 OA
ATOM     10  S   UNL     1       0.820   0.130   4.179  1.00  0.00     0.235 S 
ATOM     11  O   UNL     1       1.139   1.558   4.522  1.00  0.00    -0.206 OA
ATOM     12  C   UNL     1       2.109  -0.961   4.672  1.00  0.00     0.162 C 
ATOM     13  C   UNL     1       2.293  -1.902   3.478  1.00  0.00     0.041 C 
ATOM     14  C   UNL     1       1.887  -1.183   2.171  1.00  0.00     0.136 C 
ENDBRANCH   3   8
ENDBRANCH   1   2
BRANCH   1  15
ATOM     15  N   UNL     1      -0.854   0.392  -2.990  1.00  0.00    -0.364 N 
ATOM     16  H   UNL     1      -1.490   0.909  -3.637  1.00  0.00     0.162 HD
BRANCH  15  17
ATOM     17  C   UNL     1      -1.022  -1.023  -2.811  1.00  0.00     0.155 A 
ATOM     18  N   UNL     1      -0.167  -1.739  -2.018  1.00  0.00    -0.217 NA
ATOM     19  C   UNL     1      -2.053  -1.726  -3.429  1.00  0.00     0.128 A 
ATOM     20  C   UNL     1      -0.319  -3.089  -1.832  1.00  0.00     0.226 A 
ATOM     21  N   UNL     1      -3.023  -1.305  -4.251  1.00  0.00    -0.340 N 
ATOM     22  C   UNL     1      -2.184  -3.059  -3.235  1.00  0.00     0.182 A 
ATOM     23  N   UNL     1      -1.337  -3.763  -2.446  1.00  0.00    -0.215 NA
ATOM     24  C   UNL     1      -3.721  -2.434  -4.532  1.00  0.00     0.199 A 
ATOM     25  N   UNL     1      -3.232  -3.547  -3.920  1.00  0.00    -0.217 NA
ATOM     26  H   UNL     1      -3.209  -0.340  -4.603  1.00  0.00     0.168 HD
ENDBRANCH  15  17
ENDBRANCH   1  15
TORSDOF 4
