REMARK SMILES Cc1cccc(Oc2ccc(C(=O)Nc3cccc([C@@H]4CCC(=O)N4)c3)nc2)c1
REMARK SMILES IDX 8 1 9 2 10 3 11 4 27 5 28 6 7 7 6 8 2 9 3 10 29 11 4 12 5 13
REMARK SMILES IDX 1 14 12 15 13 16 14 17 15 19 16 20 26 21 17 22 19 23 18 24
REMARK SMILES IDX 20 25 21 26 25 27 22 28 23 29 24 30
REMARK H PARENT 14 18 25 31
ROOT
ATOM      1  C   UNL     1      -0.916   2.519   2.074  1.00  0.00     0.145 A 
ATOM      2  C   UNL     1      -1.514   1.304   1.705  1.00  0.00     0.051 A 
ATOM      3  C   UNL     1      -0.855   0.436   0.833  1.00  0.00     0.038 A 
ATOM      4  C   UNL     1       0.415   0.780   0.342  1.00  0.00     0.128 A 
ATOM      5  N   UNL     1       0.985   1.953   0.738  1.00  0.00    -0.247 NA
ATOM      6  C   UNL     1       0.359   2.814   1.583  1.00  0.00     0.159 A 
ENDROOT
BRANCH   1   7
ATOM      7  O   UNL     1      -1.531   3.421   2.954  1.00  0.00    -0.456 OA
BRANCH   7   8
ATOM      8  C   UNL     1      -2.914   3.618   3.087  1.00  0.00     0.127 A 
ATOM      9  C   UNL     1      -5.175   3.680   2.170  1.00  0.00    -0.047 A 
ATOM     10  C   UNL     1      -5.664   4.071   3.425  1.00  0.00     0.003 A 
ATOM     11  C   UNL     1      -3.800   3.447   2.006  1.00  0.00     0.050 A 
ATOM     12  C   UNL     1      -4.784   4.263   4.493  1.00  0.00     0.004 A 
ATOM     13  C   UNL     1      -3.415   4.044   4.322  1.00  0.00     0.047 A 
ATOM     14  C   UNL     1      -6.122   3.443   1.031  1.00  0.00     0.044 C 
ENDBRANCH   7   8
ENDBRANCH   1   7
BRANCH   4  15
ATOM     15  C   UNL     1       1.144  -0.114  -0.584  1.00  0.00     0.274 C 
ATOM     16  O   UNL     1       0.601  -1.185  -0.973  1.00  0.00    -0.267 OA
ATOM     17  N   UNL     1       2.448   0.252  -1.072  1.00  0.00    -0.321 N 
ATOM     18  H   UNL     1       2.738   1.252  -0.999  1.00  0.00     0.170 HD
BRANCH  17  19
ATOM     19  C   UNL     1       3.333  -0.648  -1.762  1.00  0.00     0.041 A 
ATOM     20  C   UNL     1       4.210  -0.140  -2.731  1.00  0.00     0.026 A 
ATOM     21  C   UNL     1       3.377  -2.019  -1.451  1.00  0.00     0.032 A 
ATOM     22  C   UNL     1       5.084  -0.991  -3.410  1.00  0.00     0.003 A 
ATOM     23  C   UNL     1       4.261  -2.881  -2.127  1.00  0.00    -0.024 A 
ATOM     24  C   UNL     1       5.103  -2.356  -3.119  1.00  0.00     0.006 A 
BRANCH  23  25
ATOM     25  C   UNL     1       4.279  -4.364  -1.823  1.00  0.00     0.113 C 
ATOM     26  C   UNL     1       2.967  -5.061  -2.266  1.00  0.00     0.040 C 
ATOM     27  N   UNL     1       4.385  -4.588  -0.393  1.00  0.00    -0.349 N 
ATOM     28  C   UNL     1       2.272  -5.576  -0.995  1.00  0.00     0.102 C 
ATOM     29  C   UNL     1       3.248  -5.280   0.070  1.00  0.00     0.220 C 
ATOM     30  O   UNL     1       3.088  -5.596   1.278  1.00  0.00    -0.275 OA
ATOM     31  H   UNL     1       5.184  -4.282   0.206  1.00  0.00     0.164 HD
ENDBRANCH  23  25
ENDBRANCH  17  19
ENDBRANCH   4  15
TORSDOF 5
