REMARK SMILES Cc1c[nH]c2ncc(C(=O)N[C@H]3[C@@H]4CN(C(=O)c5ccc6nc(N)n(C)c6c5)C[C@@H]43)cc12
REMARK SMILES IDX 12 1 13 2 14 3 15 4 29 5 30 6 11 7 9 8 10 9 8 11 2 12 3 13
REMARK SMILES IDX 32 14 4 15 31 16 5 17 6 18 7 19 1 20 16 22 17 23 18 24 19 25
REMARK SMILES IDX 28 26 20 27 27 28 21 29 25 30 22 31 23 32 26 33 24 34
REMARK H PARENT 11 10 4 21 24 35 24 36
ROOT
ATOM      1  C   UNL     1       0.863   0.513  -1.376  1.00  0.00     0.093 C 
ATOM      2  C   UNL     1       1.671   0.353  -0.094  1.00  0.00     0.038 C 
ATOM      3  C   UNL     1       2.094  -1.068   0.246  1.00  0.00     0.126 C 
ATOM      4  N   UNL     1       0.868  -1.808   0.500  1.00  0.00    -0.338 N 
ATOM      5  C   UNL     1      -0.329  -0.992   0.349  1.00  0.00     0.126 C 
ATOM      6  C   UNL     1       0.150   0.400  -0.036  1.00  0.00     0.038 C 
ENDROOT
BRANCH   1   7
ATOM      7  N   UNL     1       0.898   1.873  -1.902  1.00  0.00    -0.349 N 
ATOM      8  C   UNL     1       2.046   2.369  -2.606  1.00  0.00     0.253 C 
ATOM      9  O   UNL     1       2.998   1.585  -2.872  1.00  0.00    -0.269 OA
ATOM     10  H   UNL     1       0.016   2.430  -1.880  1.00  0.00     0.164 HD
BRANCH   8  11
ATOM     11  C   UNL     1       2.128   3.785  -3.038  1.00  0.00     0.058 A 
ATOM     12  C   UNL     1       0.916   7.280  -2.458  1.00  0.00    -0.024 A 
ATOM     13  C   UNL     1       1.469   8.266  -3.273  1.00  0.00     0.088 A 
ATOM     14  C   UNL     1       1.496   6.095  -2.858  1.00  0.00     0.022 A 
ATOM     15  N   UNL     1       2.347   7.718  -4.146  1.00  0.00    -0.346 N 
ATOM     16  C   UNL     1       1.359   4.788  -2.401  1.00  0.00     0.027 A 
ATOM     17  C   UNL     1       2.349   6.402  -3.877  1.00  0.00     0.137 A 
ATOM     18  N   UNL     1       3.105   5.462  -4.494  1.00  0.00    -0.238 NA
ATOM     19  C   UNL     1       3.009   4.160  -4.089  1.00  0.00     0.127 A 
ATOM     20  C   UNL     1      -0.059   7.479  -1.343  1.00  0.00     0.047 C 
ATOM     21  H   UNL     1       2.913   8.218  -4.867  1.00  0.00     0.167 HD
ENDBRANCH   8  11
ENDBRANCH   1   7
BRANCH   4  22
ATOM     22  C   UNL     1       0.845  -3.241   0.631  1.00  0.00     0.253 C 
ATOM     23  O   UNL     1       1.837  -3.916   0.242  1.00  0.00    -0.269 OA
BRANCH  22  24
ATOM     24  C   UNL     1      -0.319  -3.949   1.199  1.00  0.00     0.042 A 
ATOM     25  C   UNL     1      -0.790  -5.138   0.583  1.00  0.00     0.016 A 
ATOM     26  C   UNL     1      -0.939  -3.478   2.379  1.00  0.00     0.042 A 
ATOM     27  C   UNL     1      -1.892  -5.834   1.114  1.00  0.00     0.031 A 
ATOM     28  C   UNL     1      -2.025  -4.199   2.880  1.00  0.00     0.070 A 
ATOM     29  C   UNL     1      -2.487  -5.328   2.265  1.00  0.00     0.091 A 
ATOM     30  N   UNL     1      -2.781  -3.956   3.965  1.00  0.00    -0.314 N 
ATOM     31  N   UNL     1      -3.554  -5.824   2.918  1.00  0.00    -0.213 NA
ATOM     32  C   UNL     1      -3.708  -4.951   3.946  1.00  0.00     0.200 A 
ATOM     33  C   UNL     1      -2.710  -2.816   4.879  1.00  0.00     0.153 C 
BRANCH  32  34
ATOM     34  N   UNL     1      -4.773  -5.065   4.891  1.00  0.00    -0.369 N 
ATOM     35  H   UNL     1      -4.906  -4.361   5.649  1.00  0.00     0.159 HD
ATOM     36  H   UNL     1      -5.449  -5.856   4.819  1.00  0.00     0.159 HD
ENDBRANCH  32  34
ENDBRANCH  22  24
ENDBRANCH   4  22
TORSDOF 5
