REMARK SMILES Cc1cc(NC(=O)NC2CCN([C@@H](C)c3ccccc3)CC2)nn1-c1ccc(F)cc1F
REMARK SMILES IDX 5 1 6 2 7 3 8 4 4 7 2 8 3 9 24 10 23 11 1 12 25 13 26 14
REMARK SMILES IDX 31 15 27 16 30 17 28 18 32 19 29 20 9 21 10 22 22 23 11 24
REMARK SMILES IDX 21 25 12 26 13 27 14 28 15 29 16 30 20 31 17 32 19 33 18 34
REMARK H PARENT 5 5 8 6
ROOT
ATOM      1  N   UNL     1       0.126   0.279  -3.220  1.00  0.00    -0.291 N 
ATOM      2  C   UNL     1      -0.032  -0.008  -1.822  1.00  0.00     0.320 C 
ATOM      3  O   UNL     1      -0.430   0.886  -1.027  1.00  0.00    -0.248 OA
ATOM      4  N   UNL     1       0.312  -1.309  -1.325  1.00  0.00    -0.335 N 
ATOM      5  H   UNL     1       0.608  -0.433  -3.814  1.00  0.00     0.173 HD
ATOM      6  H   UNL     1       0.575  -2.050  -2.013  1.00  0.00     0.165 HD
ENDROOT
BRANCH   1   7
ATOM      7  C   UNL     1      -0.241   1.518  -3.846  1.00  0.00     0.156 A 
ATOM      8  C   UNL     1      -1.154   3.431  -4.347  1.00  0.00     0.043 A 
ATOM      9  C   UNL     1      -1.134   2.461  -3.367  1.00  0.00     0.072 A 
ATOM     10  N   UNL     1      -0.307   3.071  -5.339  1.00  0.00    -0.233 N 
ATOM     11  N   UNL     1       0.237   1.898  -5.047  1.00  0.00    -0.150 NA
ATOM     12  C   UNL     1      -2.002   4.667  -4.314  1.00  0.00     0.067 C 
BRANCH  10  13
ATOM     13  C   UNL     1      -0.020   3.786  -6.551  1.00  0.00     0.101 A 
ATOM     14  C   UNL     1       0.266   5.162  -6.519  1.00  0.00     0.034 A 
ATOM     15  C   UNL     1       0.019   3.105  -7.780  1.00  0.00     0.151 A 
ATOM     16  C   UNL     1       0.553   5.850  -7.699  1.00  0.00     0.041 A 
ATOM     17  C   UNL     1       0.301   3.799  -8.959  1.00  0.00     0.080 A 
ATOM     18  C   UNL     1       0.571   5.169  -8.918  1.00  0.00     0.126 A 
ATOM     19  F   UNL     1      -0.251   1.777  -7.841  1.00  0.00    -0.205 F 
ATOM     20  F   UNL     1       0.844   5.840 -10.063  1.00  0.00    -0.207 F 
ENDBRANCH  10  13
ENDBRANCH   1   7
BRANCH   4  21
ATOM     21  C   UNL     1       0.264  -1.664   0.096  1.00  0.00     0.086 C 
ATOM     22  C   UNL     1      -0.865  -2.682   0.353  1.00  0.00     0.040 C 
ATOM     23  C   UNL     1       1.613  -2.241   0.539  1.00  0.00     0.040 C 
ATOM     24  C   UNL     1      -0.661  -3.462   1.667  1.00  0.00     0.087 C 
ATOM     25  C   UNL     1       1.598  -2.620   2.037  1.00  0.00     0.087 C 
ATOM     26  N   UNL     1       0.224  -2.710   2.581  1.00  0.00    -0.296 NA
BRANCH  26  27
ATOM     27  C   UNL     1       0.211  -3.172   3.993  1.00  0.00     0.083 C 
ATOM     28  C   UNL     1      -1.028  -2.643   4.729  1.00  0.00     0.030 C 
BRANCH  27  29
ATOM     29  C   UNL     1       0.404  -4.680   4.151  1.00  0.00    -0.031 A 
ATOM     30  C   UNL     1      -0.673  -5.587   4.066  1.00  0.00     0.005 A 
ATOM     31  C   UNL     1       1.694  -5.190   4.384  1.00  0.00     0.005 A 
ATOM     32  C   UNL     1      -0.457  -6.961   4.207  1.00  0.00     0.000 A 
ATOM     33  C   UNL     1       1.905  -6.565   4.519  1.00  0.00     0.000 A 
ATOM     34  C   UNL     1       0.829  -7.450   4.434  1.00  0.00     0.000 A 
ENDBRANCH  27  29
ENDBRANCH  26  27
ENDBRANCH   4  21
TORSDOF 5
