REMARK SMILES CCc1noc(-c2ccc(C)c(NCc3ccc(C(=O)N4CCCC4)cc3)c2)n1
REMARK SMILES IDX 7 1 8 2 9 3 10 4 11 5 12 6 28 7 6 8 3 9 4 10 29 11 5 12 2 13
REMARK SMILES IDX 1 14 13 15 14 17 15 18 16 19 27 20 17 21 26 22 18 23 19 24
REMARK SMILES IDX 20 25 21 26 22 27 25 28 23 29 24 30
REMARK H PARENT 13 16
ROOT
ATOM      1  C   UNL     1      -1.994   1.459   0.239  1.00  0.00     0.042 A 
ATOM      2  C   UNL     1      -1.794   2.720  -0.333  1.00  0.00     0.014 A 
ATOM      3  C   UNL     1      -1.902   2.892  -1.713  1.00  0.00     0.006 A 
ATOM      4  C   UNL     1      -2.203   1.805  -2.551  1.00  0.00    -0.028 A 
ATOM      5  C   UNL     1      -2.283   2.028  -4.037  1.00  0.00     0.046 C 
ATOM      6  C   UNL     1      -2.422   0.525  -1.984  1.00  0.00     0.038 A 
ATOM      7  C   UNL     1      -2.320   0.373  -0.588  1.00  0.00     0.039 A 
ENDROOT
BRANCH   1   8
ATOM      8  C   UNL     1      -1.870   1.276   1.699  1.00  0.00     0.257 A 
ATOM      9  C   UNL     1      -1.764   0.446   3.611  1.00  0.00     0.172 A 
ATOM     10  N   UNL     1      -1.635   1.778   3.761  1.00  0.00    -0.062 NA
ATOM     11  N   UNL     1      -1.918   0.081   2.321  1.00  0.00    -0.192 NA
ATOM     12  O   UNL     1      -1.702   2.256   2.555  1.00  0.00    -0.334 OA
BRANCH   9  13
ATOM     13  C   UNL     1      -1.754  -0.524   4.750  1.00  0.00     0.078 C 
ATOM     14  C   UNL     1      -3.126  -1.167   4.925  1.00  0.00     0.012 C 
ENDBRANCH   9  13
ENDBRANCH   1   8
BRANCH   6  15
ATOM     15  N   UNL     1      -2.747  -0.606  -2.821  1.00  0.00    -0.381 N 
ATOM     16  H   UNL     1      -3.102  -0.444  -3.790  1.00  0.00     0.160 HD
BRANCH  15  17
ATOM     17  C   UNL     1      -2.531  -2.003  -2.434  1.00  0.00     0.148 C 
BRANCH  17  18
ATOM     18  C   UNL     1      -1.084  -2.244  -2.091  1.00  0.00    -0.029 A 
ATOM     19  C   UNL     1      -0.084  -1.995  -3.043  1.00  0.00     0.006 A 
ATOM     20  C   UNL     1      -0.720  -2.695  -0.811  1.00  0.00     0.006 A 
ATOM     21  C   UNL     1       1.264  -2.159  -2.711  1.00  0.00     0.014 A 
ATOM     22  C   UNL     1       0.628  -2.854  -0.478  1.00  0.00     0.014 A 
ATOM     23  C   UNL     1       1.628  -2.566  -1.419  1.00  0.00     0.040 A 
BRANCH  23  24
ATOM     24  C   UNL     1       3.051  -2.719  -1.067  1.00  0.00     0.253 C 
ATOM     25  O   UNL     1       3.798  -3.391  -1.829  1.00  0.00    -0.269 OA
ATOM     26  N   UNL     1       3.605  -2.091   0.105  1.00  0.00    -0.339 N 
ATOM     27  C   UNL     1       4.943  -2.381   0.591  1.00  0.00     0.120 C 
ATOM     28  C   UNL     1       3.003  -0.945   0.771  1.00  0.00     0.120 C 
ATOM     29  C   UNL     1       5.290  -1.252   1.552  1.00  0.00     0.023 C 
ATOM     30  C   UNL     1       3.972  -0.552   1.877  1.00  0.00     0.023 C 
ENDBRANCH  23  24
ENDBRANCH  17  18
ENDBRANCH  15  17
ENDBRANCH   6  15
TORSDOF 6
