REMARK SMILES O=C(Nc1nc2ccccc2n1C1CCCC1)c1coc(C2CCOCC2)n1
REMARK SMILES IDX 1 1 2 2 3 3 18 5 19 6 28 7 20 8 21 9 22 10 23 11 27 12 24 13
REMARK SMILES IDX 26 14 25 15 4 16 5 17 12 18 6 19 11 20 7 21 10 22 8 23 9 24
REMARK SMILES IDX 13 25 14 26 17 27 15 28 16 29
REMARK H PARENT 3 4
ROOT
ATOM      1  O   UNL     1       1.998  -0.699  -0.416  1.00  0.00    -0.267 OA
ATOM      2  C   UNL     1       0.750  -0.864  -0.481  1.00  0.00     0.279 C 
ATOM      3  N   UNL     1       0.050  -0.634  -1.716  1.00  0.00    -0.290 N 
ATOM      4  H   UNL     1      -0.989  -0.620  -1.688  1.00  0.00     0.173 HD
ENDROOT
BRANCH   2   5
ATOM      5  C   UNL     1       0.029  -1.276   0.737  1.00  0.00     0.167 A 
ATOM      6  C   UNL     1      -1.309  -1.594   0.850  1.00  0.00     0.231 A 
ATOM      7  N   UNL     1       0.619  -1.404   1.940  1.00  0.00    -0.208 NA
ATOM      8  O   UNL     1      -1.534  -1.907   2.101  1.00  0.00    -0.448 OA
ATOM      9  C   UNL     1      -0.392  -1.798   2.744  1.00  0.00     0.198 A 
BRANCH   9  10
ATOM     10  C   UNL     1      -0.259  -2.047   4.226  1.00  0.00     0.080 C 
ATOM     11  C   UNL     1       1.163  -2.481   4.641  1.00  0.00     0.042 C 
ATOM     12  C   UNL     1      -0.705  -0.814   5.031  1.00  0.00     0.042 C 
ATOM     13  C   UNL     1       2.118  -1.278   4.758  1.00  0.00     0.161 C 
ATOM     14  C   UNL     1       0.400   0.249   5.059  1.00  0.00     0.161 C 
ATOM     15  O   UNL     1       1.588  -0.283   5.615  1.00  0.00    -0.381 OA
ENDBRANCH   9  10
ENDBRANCH   2   5
BRANCH   3  16
ATOM     16  C   UNL     1       0.714  -0.411  -2.974  1.00  0.00     0.211 A 
ATOM     17  N   UNL     1       2.055  -0.566  -3.126  1.00  0.00    -0.213 NA
ATOM     18  N   UNL     1       0.070  -0.058  -4.130  1.00  0.00    -0.307 N 
ATOM     19  C   UNL     1       2.251  -0.294  -4.425  1.00  0.00     0.091 A 
ATOM     20  C   UNL     1       1.068   0.009  -5.037  1.00  0.00     0.070 A 
ATOM     21  C   UNL     1       3.461  -0.312  -5.114  1.00  0.00     0.031 A 
ATOM     22  C   UNL     1       1.014   0.318  -6.403  1.00  0.00     0.028 A 
ATOM     23  C   UNL     1       3.438  -0.008  -6.486  1.00  0.00     0.002 A 
ATOM     24  C   UNL     1       2.220   0.306  -7.128  1.00  0.00     0.002 A 
BRANCH  18  25
ATOM     25  C   UNL     1      -1.365   0.195  -4.371  1.00  0.00     0.091 C 
ATOM     26  C   UNL     1      -1.909   1.344  -3.525  1.00  0.00     0.025 C 
ATOM     27  C   UNL     1      -2.239  -1.032  -4.086  1.00  0.00     0.025 C 
ATOM     28  C   UNL     1      -3.355   0.978  -3.242  1.00  0.00     0.002 C 
ATOM     29  C   UNL     1      -3.415  -0.544  -3.243  1.00  0.00     0.002 C 
ENDBRANCH  18  25
ENDBRANCH   3  16
TORSDOF 4
