REMARK SMILES COc1ccnc(N(C)C(=O)c2ccc(Oc3ccc(C(F)(F)F)cn3)cc2)n1
REMARK SMILES IDX 12 1 13 2 14 3 15 4 27 5 28 6 10 7 11 8 8 9 9 10 7 11 3 12
REMARK SMILES IDX 4 13 29 14 5 15 6 16 2 17 1 18 16 19 17 20 18 21 26 22 19 23
REMARK SMILES IDX 25 24 20 25 21 26 22 27 23 28 24 29
REMARK H PARENT
ROOT
ATOM      1  C   UNL     1       2.031   1.012  -0.880  1.00  0.00     0.040 A 
ATOM      2  C   UNL     1       2.081   1.526   0.427  1.00  0.00     0.018 A 
ATOM      3  C   UNL     1       1.917   0.678   1.526  1.00  0.00     0.048 A 
ATOM      4  C   UNL     1       1.687  -0.688   1.339  1.00  0.00     0.129 A 
ATOM      5  C   UNL     1       1.681  -1.213   0.035  1.00  0.00     0.048 A 
ATOM      6  C   UNL     1       1.854  -0.369  -1.066  1.00  0.00     0.018 A 
ENDROOT
BRANCH   1   7
ATOM      7  C   UNL     1       2.148   1.914  -2.049  1.00  0.00     0.260 C 
ATOM      8  O   UNL     1       2.675   1.482  -3.110  1.00  0.00    -0.269 OA
BRANCH   7   9
ATOM      9  N   UNL     1       1.671   3.274  -1.996  1.00  0.00    -0.280 N 
ATOM     10  C   UNL     1       2.421   4.313  -2.707  1.00  0.00     0.157 C 
BRANCH   9  11
ATOM     11  C   UNL     1       0.365   3.577  -1.459  1.00  0.00     0.235 A 
ATOM     12  C   UNL     1      -1.677   2.833  -0.497  1.00  0.00     0.217 A 
ATOM     13  C   UNL     1      -2.138   4.147  -0.441  1.00  0.00     0.088 A 
ATOM     14  N   UNL     1      -0.444   2.577  -1.011  1.00  0.00    -0.177 NA
ATOM     15  C   UNL     1      -1.307   5.165  -0.910  1.00  0.00     0.121 A 
ATOM     16  N   UNL     1      -0.079   4.864  -1.407  1.00  0.00    -0.221 NA
BRANCH  12  17
ATOM     17  O   UNL     1      -2.482   1.794  -0.021  1.00  0.00    -0.481 OA
ATOM     18  C   UNL     1      -2.046   0.439   0.009  1.00  0.00     0.280 C 
ENDBRANCH  12  17
ENDBRANCH   9  11
ENDBRANCH   7   9
ENDBRANCH   1   7
BRANCH   4  19
ATOM     19  O   UNL     1       1.501  -1.501   2.466  1.00  0.00    -0.439 OA
BRANCH  19  20
ATOM     20  C   UNL     1       0.644  -2.607   2.518  1.00  0.00     0.219 A 
ATOM     21  C   UNL     1       0.765  -3.516   3.571  1.00  0.00     0.069 A 
ATOM     22  N   UNL     1      -0.331  -2.786   1.585  1.00  0.00    -0.221 NA
ATOM     23  C   UNL     1      -0.100  -4.609   3.640  1.00  0.00     0.020 A 
ATOM     24  C   UNL     1      -1.185  -3.843   1.627  1.00  0.00     0.128 A 
ATOM     25  C   UNL     1      -1.077  -4.800   2.649  1.00  0.00     0.074 A 
BRANCH  25  26
ATOM     26  C   UNL     1      -2.051  -5.947   2.738  1.00  0.00     0.417 C 
ATOM     27  F   UNL     1      -1.462  -7.041   3.348  1.00  0.00    -0.166 F 
ATOM     28  F   UNL     1      -3.150  -5.554   3.478  1.00  0.00    -0.166 F 
ATOM     29  F   UNL     1      -2.470  -6.329   1.475  1.00  0.00    -0.166 F 
ENDBRANCH  25  26
ENDBRANCH  19  20
ENDBRANCH   4  19
TORSDOF 7
