REMARK SMILES O=C(Nc1cccc(-c2[nH]nc3c2COCC3)c1)c1cncc(O)c1
REMARK SMILES IDX 1 1 2 2 3 3 19 5 20 6 25 7 21 8 23 9 22 10 24 11 4 13 5 14
REMARK SMILES IDX 18 15 6 16 8 17 7 18 9 19 10 20 13 21 11 22 14 23 12 24
REMARK SMILES IDX 15 25 17 26 16 27
REMARK H PARENT 3 4 24 12 10 28
ROOT
ATOM      1  O   UNL     1      -1.592  -2.285  -0.711  1.00  0.00    -0.269 OA
ATOM      2  C   UNL     1      -1.455  -2.692  -1.897  1.00  0.00     0.257 C 
ATOM      3  N   UNL     1      -0.137  -2.948  -2.414  1.00  0.00    -0.322 N 
ATOM      4  H   UNL     1      -0.031  -3.683  -3.148  1.00  0.00     0.170 HD
ENDROOT
BRANCH   2   5
ATOM      5  C   UNL     1      -2.659  -2.948  -2.724  1.00  0.00     0.062 A 
ATOM      6  C   UNL     1      -2.575  -3.046  -4.124  1.00  0.00     0.125 A 
ATOM      7  C   UNL     1      -3.923  -3.074  -2.123  1.00  0.00     0.063 A 
ATOM      8  N   UNL     1      -3.693  -3.271  -4.865  1.00  0.00    -0.260 NA
ATOM      9  C   UNL     1      -5.056  -3.308  -2.905  1.00  0.00     0.134 A 
ATOM     10  C   UNL     1      -4.917  -3.407  -4.293  1.00  0.00     0.157 A 
BRANCH   9  11
ATOM     11  O   UNL     1      -6.303  -3.439  -2.299  1.00  0.00    -0.506 OA
ATOM     12  H   UNL     1      -7.141  -3.609  -2.844  1.00  0.00     0.293 HD
ENDBRANCH   9  11
ENDBRANCH   2   5
BRANCH   3  13
ATOM     13  C   UNL     1       1.059  -2.365  -1.868  1.00  0.00     0.042 A 
ATOM     14  C   UNL     1       2.270  -3.066  -1.958  1.00  0.00     0.026 A 
ATOM     15  C   UNL     1       1.050  -1.080  -1.296  1.00  0.00     0.036 A 
ATOM     16  C   UNL     1       3.447  -2.508  -1.456  1.00  0.00     0.003 A 
ATOM     17  C   UNL     1       2.229  -0.517  -0.776  1.00  0.00     0.002 A 
ATOM     18  C   UNL     1       3.429  -1.242  -0.867  1.00  0.00     0.010 A 
BRANCH  17  19
ATOM     19  C   UNL     1       2.222   0.829  -0.160  1.00  0.00     0.071 A 
ATOM     20  N   UNL     1       3.258   1.698  -0.203  1.00  0.00    -0.277 N 
ATOM     21  C   UNL     1       1.213   1.420   0.580  1.00  0.00     0.027 A 
ATOM     22  N   UNL     1       2.949   2.805   0.460  1.00  0.00    -0.180 NA
ATOM     23  C   UNL     1      -0.148   0.961   1.012  1.00  0.00     0.200 C 
ATOM     24  C   UNL     1       1.697   2.648   0.924  1.00  0.00     0.071 A 
ATOM     25  O   UNL     1      -0.575   1.685   2.161  1.00  0.00    -0.376 OA
ATOM     26  C   UNL     1       0.945   3.580   1.814  1.00  0.00     0.087 C 
ATOM     27  C   UNL     1      -0.516   3.090   1.929  1.00  0.00     0.167 C 
ATOM     28  H   UNL     1       4.172   1.549  -0.685  1.00  0.00     0.190 HD
ENDBRANCH  17  19
ENDBRANCH   3  13
TORSDOF 4
