REMARK SMILES CCN(Cc1cn(Cc2nccs2)nn1)c1cccc(CO)c1
REMARK SMILES IDX 3 1 2 2 1 3 4 4 5 5 6 6 15 7 7 8 14 9 8 10 9 11 10 12 13 13
REMARK SMILES IDX 11 14 12 15 16 16 17 17 23 18 18 19 20 20 19 21 21 22 22 23
REMARK H PARENT 22 24
ROOT
ATOM      1  N   UNL     1       0.020  -1.837   0.829  1.00  0.00    -0.366 N 
ENDROOT
BRANCH   1   2
ATOM      2  C   UNL     1      -0.537  -2.991   0.109  1.00  0.00     0.113 C 
ATOM      3  C   UNL     1      -1.480  -2.533  -1.001  1.00  0.00     0.027 C 
ENDBRANCH   1   2
BRANCH   1   4
ATOM      4  C   UNL     1       1.467  -1.590   0.818  1.00  0.00     0.176 C 
BRANCH   4   5
ATOM      5  C   UNL     1       1.871  -0.887  -0.439  1.00  0.00     0.102 A 
ATOM      6  C   UNL     1       2.191   0.445  -0.569  1.00  0.00     0.137 A 
ATOM      7  N   UNL     1       1.887  -1.453  -1.663  1.00  0.00    -0.134 NA
ATOM      8  N   UNL     1       2.403   0.647  -1.880  1.00  0.00    -0.245 N 
ATOM      9  N   UNL     1       2.208  -0.494  -2.521  1.00  0.00    -0.067 NA
BRANCH   8  10
ATOM     10  C   UNL     1       2.636   1.929  -2.532  1.00  0.00     0.213 C 
BRANCH  10  11
ATOM     11  C   UNL     1       1.328   2.586  -2.829  1.00  0.00     0.114 A 
ATOM     12  N   UNL     1       0.709   2.506  -4.027  1.00  0.00    -0.248 NA
ATOM     13  S   UNL     1       0.377   3.385  -1.696  1.00  0.00    -0.125 S 
ATOM     14  C   UNL     1      -0.507   3.116  -4.008  1.00  0.00     0.123 A 
ATOM     15  C   UNL     1      -0.871   3.671  -2.786  1.00  0.00     0.087 A 
ENDBRANCH  10  11
ENDBRANCH   8  10
ENDBRANCH   4   5
ENDBRANCH   1   4
BRANCH   1  16
ATOM     16  C   UNL     1      -0.852  -0.959   1.563  1.00  0.00     0.037 A 
ATOM     17  C   UNL     1      -1.635  -1.456   2.614  1.00  0.00     0.026 A 
ATOM     18  C   UNL     1      -0.941   0.400   1.221  1.00  0.00     0.032 A 
ATOM     19  C   UNL     1      -2.495  -0.607   3.315  1.00  0.00     0.003 A 
ATOM     20  C   UNL     1      -1.794   1.260   1.931  1.00  0.00    -0.021 A 
ATOM     21  C   UNL     1      -2.580   0.745   2.972  1.00  0.00     0.006 A 
BRANCH  20  22
ATOM     22  C   UNL     1      -1.916   2.703   1.527  1.00  0.00     0.191 C 
BRANCH  22  23
ATOM     23  O   UNL     1      -2.913   2.850   0.554  1.00  0.00    -0.392 OA
ATOM     24  H   UNL     1      -2.532   2.507  -0.297  1.00  0.00     0.211 HD
ENDBRANCH  22  23
ENDBRANCH  20  22
ENDBRANCH   1  16
TORSDOF 8
