REMARK SMILES COc1cc(OC)cc(S(=O)(=O)Nc2cc(S(=O)(=O)NC(C)(C)C)ccc2OC)c1
REMARK SMILES IDX 14 1 15 2 16 3 25 4 26 5 27 6 13 7 10 9 11 10 12 11 9 12
REMARK SMILES IDX 3 13 4 14 30 15 5 16 8 17 2 18 1 19 6 20 7 21 28 22 29 23
REMARK SMILES IDX 17 24 18 25 19 26 20 27 21 29 22 30 23 31 24 32
REMARK H PARENT 13 8 20 28
ROOT
ATOM      1  C   UNL     1       1.291   1.889  -0.049  1.00  0.00     0.092 A 
ATOM      2  C   UNL     1       0.724   0.652   0.305  1.00  0.00     0.052 A 
ATOM      3  C   UNL     1       0.986  -0.498  -0.445  1.00  0.00     0.084 A 
ATOM      4  C   UNL     1       1.840  -0.424  -1.550  1.00  0.00     0.026 A 
ATOM      5  C   UNL     1       2.431   0.791  -1.899  1.00  0.00     0.050 A 
ATOM      6  C   UNL     1       2.162   1.958  -1.156  1.00  0.00     0.143 A 
ENDROOT
BRANCH   1   7
ATOM      7  N   UNL     1       0.994   3.080   0.704  1.00  0.00    -0.276 N 
ATOM      8  H   UNL     1       1.587   3.931   0.583  1.00  0.00     0.180 HD
BRANCH   7   9
ATOM      9  S   UNL     1      -0.438   3.261   1.670  1.00  0.00     0.262 S 
ATOM     10  O   UNL     1      -0.694   4.721   1.917  1.00  0.00    -0.201 OA
ATOM     11  O   UNL     1      -0.231   2.570   2.989  1.00  0.00    -0.201 OA
BRANCH   9  12
ATOM     12  C   UNL     1      -1.821   2.581   0.815  1.00  0.00     0.095 A 
ATOM     13  C   UNL     1      -3.109   2.370  -1.236  1.00  0.00     0.123 A 
ATOM     14  C   UNL     1      -3.941   1.425  -0.605  1.00  0.00     0.092 A 
ATOM     15  C   UNL     1      -2.054   2.941  -0.517  1.00  0.00     0.069 A 
ATOM     16  C   UNL     1      -3.714   1.058   0.736  1.00  0.00     0.123 A 
ATOM     17  C   UNL     1      -2.655   1.645   1.437  1.00  0.00     0.069 A 
BRANCH  13  18
ATOM     18  O   UNL     1      -3.292   2.763  -2.570  1.00  0.00    -0.497 OA
ATOM     19  C   UNL     1      -4.314   2.261  -3.425  1.00  0.00     0.278 C 
ENDBRANCH  13  18
BRANCH  16  20
ATOM     20  O   UNL     1      -4.511   0.116   1.404  1.00  0.00    -0.497 OA
ATOM     21  C   UNL     1      -5.606  -0.576   0.814  1.00  0.00     0.278 C 
ENDBRANCH  16  20
ENDBRANCH   9  12
ENDBRANCH   7   9
ENDBRANCH   1   7
BRANCH   6  22
ATOM     22  O   UNL     1       2.732   3.196  -1.496  1.00  0.00    -0.495 OA
ATOM     23  C   UNL     1       3.619   3.406  -2.590  1.00  0.00     0.278 C 
ENDBRANCH   6  22
BRANCH   3  24
ATOM     24  S   UNL     1       0.230  -2.021   0.012  1.00  0.00     0.241 S 
ATOM     25  O   UNL     1      -1.257  -1.805   0.011  1.00  0.00    -0.207 OA
ATOM     26  O   UNL     1       0.539  -3.088  -1.001  1.00  0.00    -0.207 OA
BRANCH  24  27
ATOM     27  N   UNL     1       0.705  -2.553   1.609  1.00  0.00    -0.206 NA
ATOM     28  H   UNL     1       0.311  -1.870   2.297  1.00  0.00     0.141 HD
BRANCH  27  29
ATOM     29  C   UNL     1       2.155  -2.745   1.865  1.00  0.00     0.025 C 
ATOM     30  C   UNL     1       2.275  -3.506   3.200  1.00  0.00     0.028 C 
ATOM     31  C   UNL     1       2.831  -3.601   0.773  1.00  0.00     0.028 C 
ATOM     32  C   UNL     1       2.900  -1.398   2.013  1.00  0.00     0.028 C 
ENDBRANCH  27  29
ENDBRANCH  24  27
ENDBRANCH   3  24
TORSDOF 9
