REMARK SMILES C[C@@H]1CN(C(=O)c2cc3oc(Br)cc3[nH]2)CCN(C2CCC2)C1
REMARK SMILES IDX 4 1 3 2 2 3 1 4 16 6 17 7 18 8 23 9 19 11 20 12 22 13 21 14
REMARK SMILES IDX 5 15 6 16 7 17 8 18 15 19 9 20 14 21 10 22 13 23 11 24 12 26
REMARK H PARENT 15 25
REMARK Flexibility Score:   47.900
ROOT
ATOM      1  N   UNL     1      -0.633   0.302  -0.667  1.00  0.00    -0.336 N 
ENDROOT
BRANCH   1   2
ATOM      2  C   UNL     1      -0.346  -1.121  -0.878  1.00  0.00     0.124 C 
BRANCH   2   3
ATOM      3  C   UNL     1      -0.166  -1.861   0.462  1.00  0.00     0.019 CG0
ATOM      4  C   UNL     1       0.500  -3.223   0.222  1.00  0.00     0.011 C 
ATOM      5  G   UNL     1       0.600  -1.037   1.528  1.00  0.00     0.000 G0
ENDBRANCH   2   3
ENDBRANCH   1   2
BRANCH   1   6
ATOM      6  C   UNL     1       0.496   1.237  -0.652  1.00  0.00     0.135 C 
BRANCH   6   7
ATOM      7  C   UNL     1       1.299   1.135   0.651  1.00  0.00     0.106 C 
BRANCH   7   8
ATOM      8  N   UNL     1       1.725  -0.263   0.932  1.00  0.00    -0.298 NA
BRANCH   8   9
ATOM      9  C   UNL     1       0.600  -1.037   1.528  1.00  0.00     0.090 CG0
ATOM     10  G   UNL     1      -0.166  -1.861   0.462  1.00  0.00     0.000 G0
ENDBRANCH   8   9
BRANCH   8  11
ATOM     11  C   UNL     1       2.894  -0.250   1.844  1.00  0.00     0.056 C 
ATOM     12  C   UNL     1       4.179   0.233   1.161  1.00  0.00     0.019 C 
ATOM     13  C   UNL     1       3.544  -1.626   2.034  1.00  0.00     0.019 C 
ATOM     14  C   UNL     1       4.824  -1.123   1.388  1.00  0.00     0.003 C 
ENDBRANCH   8  11
ENDBRANCH   7   8
ENDBRANCH   6   7
ENDBRANCH   1   6
BRANCH   1  15
ATOM     15  C   UNL     1      -1.917   0.723  -0.169  1.00  0.00     0.270 C 
ATOM     16  O   UNL     1      -1.978   1.481   0.836  1.00  0.00    -0.267 OA
BRANCH  15  17
ATOM     17  C   UNL     1      -3.170   0.300  -0.819  1.00  0.00     0.108 A 
ATOM     18  C   UNL     1      -3.286  -0.131  -2.159  1.00  0.00     0.081 A 
ATOM     19  N   UNL     1      -4.386   0.347  -0.198  1.00  0.00    -0.348 N 
ATOM     20  C   UNL     1      -4.633  -0.346  -2.281  1.00  0.00     0.154 A 
ATOM     21  C   UNL     1      -5.231  -0.069  -1.146  1.00  0.00     0.086 A 
ATOM     22  O   UNL     1      -5.475  -0.727  -3.202  1.00  0.00    -0.448 OA
ATOM     23  C   UNL     1      -6.578  -0.263  -1.276  1.00  0.00     0.085 A 
ATOM     24  C   UNL     1      -6.670  -0.687  -2.615  1.00  0.00     0.172 A 
ATOM     25  H   UNL     1      -4.609   0.643   0.778  1.00  0.00     0.167 HD
ATOM     26  Br  UNL     1      -8.296  -1.147  -3.498  1.00  0.00    -0.008 Br
ENDBRANCH  15  17
ENDBRANCH   1  15
TORSDOF 3
