REMARK SMILES Nc1ccc(C(=O)Nc2ccc(Cl)cc2OCC(F)(F)F)cn1
REMARK SMILES IDX 9 1 10 2 11 3 12 4 13 5 14 6 15 7 8 8 6 9 7 10 5 12 2 13
REMARK SMILES IDX 3 14 23 15 4 16 22 17 1 18 16 21 17 22 18 23 19 24 20 25
REMARK SMILES IDX 21 26
REMARK H PARENT 8 11 1 19 1 20
ROOT
ATOM      1  C   UNL     1       1.317   0.795   0.562  1.00  0.00     0.084 A 
ATOM      2  C   UNL     1       1.637   2.147   0.342  1.00  0.00     0.031 A 
ATOM      3  C   UNL     1       2.849   2.671   0.794  1.00  0.00     0.023 A 
ATOM      4  C   UNL     1       3.761   1.851   1.459  1.00  0.00     0.044 A 
ATOM      5  Cl  UNL     1       5.285   2.514   2.020  1.00  0.00    -0.084 Cl
ATOM      6  C   UNL     1       3.465   0.502   1.670  1.00  0.00     0.069 A 
ATOM      7  C   UNL     1       2.241  -0.040   1.225  1.00  0.00     0.144 A 
ENDROOT
BRANCH   1   8
ATOM      8  N   UNL     1       0.078   0.247   0.075  1.00  0.00    -0.319 N 
ATOM      9  C   UNL     1      -1.156   0.984   0.047  1.00  0.00     0.257 C 
ATOM     10  O   UNL     1      -1.296   1.994   0.790  1.00  0.00    -0.269 OA
ATOM     11  H   UNL     1       0.049  -0.767  -0.172  1.00  0.00     0.170 HD
BRANCH   9  12
ATOM     12  C   UNL     1      -2.285   0.546  -0.809  1.00  0.00     0.058 A 
ATOM     13  C   UNL     1      -4.442  -0.233  -2.399  1.00  0.00     0.123 A 
ATOM     14  C   UNL     1      -3.159  -0.697  -2.703  1.00  0.00     0.047 A 
ATOM     15  N   UNL     1      -4.625   0.597  -1.338  1.00  0.00    -0.239 NA
ATOM     16  C   UNL     1      -2.080  -0.304  -1.908  1.00  0.00     0.019 A 
ATOM     17  C   UNL     1      -3.592   0.995  -0.549  1.00  0.00     0.127 A 
BRANCH  13  18
ATOM     18  N   UNL     1      -5.561  -0.621  -3.197  1.00  0.00    -0.384 N 
ATOM     19  H   UNL     1      -6.517  -0.270  -2.968  1.00  0.00     0.158 HD
ATOM     20  H   UNL     1      -5.441  -1.256  -4.018  1.00  0.00     0.158 HD
ENDBRANCH  13  18
ENDBRANCH   9  12
ENDBRANCH   1   8
BRANCH   7  21
ATOM     21  O   UNL     1       1.903  -1.392   1.416  1.00  0.00    -0.482 OA
BRANCH  21  22
ATOM     22  C   UNL     1       2.629  -2.343   2.198  1.00  0.00     0.344 C 
BRANCH  22  23
ATOM     23  C   UNL     1       2.306  -2.194   3.684  1.00  0.00     0.422 C 
ATOM     24  F   UNL     1       0.942  -2.313   3.880  1.00  0.00    -0.167 F 
ATOM     25  F   UNL     1       2.950  -3.189   4.397  1.00  0.00    -0.167 F 
ATOM     26  F   UNL     1       2.725  -0.964   4.155  1.00  0.00    -0.167 F 
ENDBRANCH  22  23
ENDBRANCH  21  22
ENDBRANCH   7  21
TORSDOF 6
