REMARK SMILES c1ccc(Oc2ccnc(N[C@H]3CC[C@H]4OCC[C@H]4C3)n2)cc1
REMARK SMILES IDX 6 1 7 2 8 3 9 4 10 5 21 6 5 7 4 8 1 9 2 10 23 11 3 12 22 13
REMARK SMILES IDX 11 14 12 16 13 17 20 18 14 19 19 20 15 21 18 22 16 23 17 24
REMARK H PARENT 11 15
ROOT
ATOM      1  C   UNL     1       2.938  -1.918  -0.031  1.00  0.00     0.224 A 
ATOM      2  C   UNL     1       4.079  -1.456   0.627  1.00  0.00     0.089 A 
ATOM      3  C   UNL     1       4.154  -0.105   0.962  1.00  0.00     0.121 A 
ATOM      4  N   UNL     1       3.137   0.733   0.636  1.00  0.00    -0.221 NA
ATOM      5  C   UNL     1       2.035   0.276  -0.018  1.00  0.00     0.226 A 
ATOM      6  N   UNL     1       1.946  -1.042  -0.347  1.00  0.00    -0.177 NA
ENDROOT
BRANCH   1   7
ATOM      7  O   UNL     1       2.851  -3.269  -0.390  1.00  0.00    -0.439 OA
BRANCH   7   8
ATOM      8  C   UNL     1       1.658  -3.936  -0.700  1.00  0.00     0.129 A 
ATOM      9  C   UNL     1      -0.691  -5.325  -1.357  1.00  0.00     0.000 A 
ATOM     10  C   UNL     1      -0.725  -4.316  -0.391  1.00  0.00     0.004 A 
ATOM     11  C   UNL     1       0.516  -5.653  -1.982  1.00  0.00     0.004 A 
ATOM     12  C   UNL     1       0.446  -3.628  -0.055  1.00  0.00     0.047 A 
ATOM     13  C   UNL     1       1.687  -4.965  -1.649  1.00  0.00     0.047 A 
ENDBRANCH   7   8
ENDBRANCH   1   7
BRANCH   5  14
ATOM     14  N   UNL     1       0.986   1.190  -0.364  1.00  0.00    -0.351 N 
ATOM     15  H   UNL     1       1.105   2.193  -0.093  1.00  0.00     0.163 HD
BRANCH  14  16
ATOM     16  C   UNL     1      -0.190   0.784  -1.142  1.00  0.00     0.082 C 
ATOM     17  C   UNL     1      -1.127  -0.110  -0.285  1.00  0.00     0.027 C 
ATOM     18  C   UNL     1      -0.925   2.022  -1.685  1.00  0.00     0.031 C 
ATOM     19  C   UNL     1      -2.625   0.183  -0.482  1.00  0.00     0.034 C 
ATOM     20  C   UNL     1      -2.123   1.589  -2.558  1.00  0.00     0.022 C 
ATOM     21  C   UNL     1      -2.963   0.449  -1.957  1.00  0.00     0.121 C 
ATOM     22  C   UNL     1      -3.127   2.690  -2.771  1.00  0.00     0.035 C 
ATOM     23  O   UNL     1      -4.333   0.771  -2.069  1.00  0.00    -0.378 OA
ATOM     24  C   UNL     1      -4.431   1.931  -2.861  1.00  0.00     0.161 C 
ENDBRANCH  14  16
ENDBRANCH   5  14
TORSDOF 4
