REMARK SMILES Cn1nc(-c2ccc(F)cc2)cc1C(=O)N1CC[C@@](C#N)(C(N)=O)C1
REMARK SMILES IDX 14 1 15 2 13 3 2 4 3 5 4 6 12 7 1 8 5 9 6 10 11 11 7 12
REMARK SMILES IDX 10 13 8 14 9 15 16 16 17 17 25 18 18 19 19 20 20 21 21 22
REMARK SMILES IDX 22 23 23 24 24 25
REMARK H PARENT 23 26 23 27
ROOT
ATOM      1  C   UNL     1       0.489   1.287  -1.032  1.00  0.00     0.272 C 
ATOM      2  O   UNL     1       1.611   1.674  -1.456  1.00  0.00    -0.267 OA
ENDROOT
BRANCH   1   3
ATOM      3  C   UNL     1       0.262  -0.154  -0.833  1.00  0.00     0.126 A 
ATOM      4  N   UNL     1      -0.764  -0.874  -1.337  1.00  0.00    -0.262 N 
ATOM      5  N   UNL     1      -0.632  -2.139  -0.972  1.00  0.00    -0.172 NA
ATOM      6  C   UNL     1       0.492  -2.243  -0.232  1.00  0.00     0.093 A 
ATOM      7  C   UNL     1       1.098  -0.998  -0.134  1.00  0.00     0.064 A 
ATOM      8  C   UNL     1      -1.831  -0.418  -2.224  1.00  0.00     0.174 C 
BRANCH   6   9
ATOM      9  C   UNL     1       0.973  -3.518   0.355  1.00  0.00     0.002 A 
ATOM     10  C   UNL     1       2.153  -3.572   1.122  1.00  0.00     0.013 A 
ATOM     11  C   UNL     1       0.243  -4.704   0.149  1.00  0.00     0.013 A 
ATOM     12  C   UNL     1       2.589  -4.785   1.667  1.00  0.00     0.040 A 
ATOM     13  C   UNL     1       0.684  -5.913   0.696  1.00  0.00     0.040 A 
ATOM     14  C   UNL     1       1.856  -5.954   1.454  1.00  0.00     0.123 A 
ATOM     15  F   UNL     1       2.281  -7.127   1.984  1.00  0.00    -0.207 F 
ENDBRANCH   6   9
ENDBRANCH   1   3
BRANCH   1  16
ATOM     16  N   UNL     1      -0.528   2.252  -0.721  1.00  0.00    -0.335 N 
ATOM     17  C   UNL     1      -1.564   2.035   0.276  1.00  0.00     0.122 C 
ATOM     18  C   UNL     1      -0.495   3.618  -1.215  1.00  0.00     0.152 C 
ATOM     19  C   UNL     1      -2.174   3.408   0.539  1.00  0.00     0.056 C 
ATOM     20  C   UNL     1      -1.774   4.278  -0.670  1.00  0.00     0.154 C 
ATOM     21  C   UNL     1      -2.839   4.181  -1.698  1.00  0.00     0.081 C 
ATOM     22  N   UNL     1      -3.670   4.103  -2.499  1.00  0.00    -0.197 NA
BRANCH  20  23
ATOM     23  C   UNL     1      -1.542   5.729  -0.273  1.00  0.00     0.239 C 
ATOM     24  N   UNL     1      -0.550   6.073   0.699  1.00  0.00    -0.368 N 
ATOM     25  O   UNL     1      -2.225   6.653  -0.795  1.00  0.00    -0.273 OA
ATOM     26  H   UNL     1       0.038   5.343   1.159  1.00  0.00     0.159 HD
ATOM     27  H   UNL     1      -0.401   7.072   0.964  1.00  0.00     0.159 HD
ENDBRANCH  20  23
ENDBRANCH   1  16
TORSDOF 4
