REMARK SMILES C[C@@H]1CN(C(=O)c2cc3oc(Br)cc3[nH]2)CCN(C2CCC2)C1
REMARK SMILES IDX 4 1 3 2 2 3 1 4 16 6 17 7 18 8 23 9 19 11 20 12 22 13 21 14
REMARK SMILES IDX 5 15 6 16 7 17 8 18 15 19 9 20 14 21 10 22 13 23 11 24 12 26
REMARK H PARENT 15 25
REMARK Flexibility Score:   47.900
ROOT
ATOM      1  N   UNL     1      -0.851  -0.164   1.051  1.00  0.00    -0.336 N 
ENDROOT
BRANCH   1   2
ATOM      2  C   UNL     1      -1.946   0.808   1.022  1.00  0.00     0.124 C 
BRANCH   2   3
ATOM      3  C   UNL     1      -2.137   1.385  -0.395  1.00  0.00     0.019 CG0
ATOM      4  C   UNL     1      -3.459   2.167  -0.451  1.00  0.00     0.011 C 
ATOM      5  G   UNL     1      -0.948   2.299  -0.792  1.00  0.00     0.000 G0
ENDBRANCH   2   3
ENDBRANCH   1   2
BRANCH   1   6
ATOM      6  C   UNL     1       0.502   0.280   0.705  1.00  0.00     0.135 C 
BRANCH   6   7
ATOM      7  C   UNL     1       0.666   0.337  -0.825  1.00  0.00     0.106 C 
BRANCH   7   8
ATOM      8  N   UNL     1       0.144   1.572  -1.481  1.00  0.00    -0.298 NA
BRANCH   8   9
ATOM      9  C   UNL     1      -0.948   2.299  -0.792  1.00  0.00     0.090 CG0
ATOM     10  G   UNL     1      -2.137   1.385  -0.395  1.00  0.00     0.000 G0
ENDBRANCH   8   9
BRANCH   8  11
ATOM     11  C   UNL     1       1.156   2.525  -2.020  1.00  0.00     0.056 C 
ATOM     12  C   UNL     1       2.106   1.917  -3.051  1.00  0.00     0.019 C 
ATOM     13  C   UNL     1       2.341   2.844  -1.106  1.00  0.00     0.019 C 
ATOM     14  C   UNL     1       3.287   2.241  -2.140  1.00  0.00     0.003 C 
ENDBRANCH   8  11
ENDBRANCH   7   8
ENDBRANCH   6   7
ENDBRANCH   1   6
BRANCH   1  15
ATOM     15  C   UNL     1      -1.157  -1.569   1.070  1.00  0.00     0.270 C 
ATOM     16  O   UNL     1      -2.064  -2.019   0.318  1.00  0.00    -0.267 OA
BRANCH  15  17
ATOM     17  C   UNL     1      -0.445  -2.493   1.971  1.00  0.00     0.108 A 
ATOM     18  C   UNL     1       0.347  -2.102   3.072  1.00  0.00     0.081 A 
ATOM     19  N   UNL     1      -0.520  -3.852   1.861  1.00  0.00    -0.348 N 
ATOM     20  C   UNL     1       0.739  -3.307   3.592  1.00  0.00     0.154 A 
ATOM     21  C   UNL     1       0.231  -4.284   2.878  1.00  0.00     0.086 A 
ATOM     22  O   UNL     1       1.456  -3.746   4.590  1.00  0.00    -0.448 OA
ATOM     23  C   UNL     1       0.611  -5.487   3.407  1.00  0.00     0.085 A 
ATOM     24  C   UNL     1       1.395  -5.074   4.500  1.00  0.00     0.172 A 
ATOM     25  H   UNL     1      -1.041  -4.423   1.157  1.00  0.00     0.167 HD
ATOM     26  Br  UNL     1       2.269  -6.255   5.716  1.00  0.00    -0.008 Br
ENDBRANCH  15  17
ENDBRANCH   1  15
TORSDOF 3
