REMARK SMILES C[C@H]1OCC[C@@]1(C)NC(=O)C1CCN(c2ccc(C#N)cc2F)CC1
REMARK SMILES IDX 11 1 12 2 13 3 14 4 24 5 25 6 9 7 8 8 10 9 6 11 2 12 3 13
REMARK SMILES IDX 4 14 5 15 1 16 7 17 15 18 16 19 22 20 17 21 21 22 18 23
REMARK SMILES IDX 19 24 20 25 23 26
REMARK H PARENT 8 10
ROOT
ATOM      1  C   UNL     1       1.268   1.693  -0.903  1.00  0.00     0.082 C 
ATOM      2  C   UNL     1       1.597   1.113  -2.309  1.00  0.00     0.035 C 
ATOM      3  C   UNL     1       2.527  -0.104  -2.255  1.00  0.00     0.117 C 
ATOM      4  N   UNL     1       2.067  -1.039  -1.221  1.00  0.00    -0.369 N 
ATOM      5  C   UNL     1       1.890  -0.562   0.159  1.00  0.00     0.117 C 
ATOM      6  C   UNL     1       1.997   0.969   0.252  1.00  0.00     0.035 C 
ENDROOT
BRANCH   1   7
ATOM      7  C   UNL     1      -0.222   1.761  -0.643  1.00  0.00     0.223 C 
ATOM      8  N   UNL     1      -1.056   0.593  -0.778  1.00  0.00    -0.348 N 
ATOM      9  O   UNL     1      -0.717   2.855  -0.259  1.00  0.00    -0.275 OA
ATOM     10  H   UNL     1      -0.600  -0.261  -1.160  1.00  0.00     0.164 HD
BRANCH   8  11
ATOM     11  C   UNL     1      -2.465   0.519  -0.331  1.00  0.00     0.065 C 
ATOM     12  C   UNL     1      -3.038  -0.911  -0.431  1.00  0.00     0.140 C 
ATOM     13  O   UNL     1      -2.588  -1.636   0.689  1.00  0.00    -0.376 OA
ATOM     14  C   UNL     1      -2.340  -0.696   1.712  1.00  0.00     0.163 C 
ATOM     15  C   UNL     1      -2.542   0.713   1.171  1.00  0.00     0.059 C 
ATOM     16  C   UNL     1      -2.713  -1.672  -1.723  1.00  0.00     0.041 C 
ATOM     17  C   UNL     1      -3.341   1.527  -1.106  1.00  0.00     0.037 C 
ENDBRANCH   8  11
ENDBRANCH   1   7
BRANCH   4  18
ATOM     18  C   UNL     1       1.781  -2.415  -1.542  1.00  0.00     0.073 A 
ATOM     19  C   UNL     1       2.313  -3.449  -0.752  1.00  0.00     0.030 A 
ATOM     20  C   UNL     1       0.947  -2.746  -2.628  1.00  0.00     0.147 A 
ATOM     21  C   UNL     1       2.027  -4.785  -1.044  1.00  0.00     0.022 A 
ATOM     22  C   UNL     1       0.660  -4.085  -2.915  1.00  0.00     0.061 A 
ATOM     23  C   UNL     1       1.200  -5.106  -2.126  1.00  0.00     0.055 A 
ATOM     24  C   UNL     1       0.901  -6.482  -2.423  1.00  0.00     0.099 C 
ATOM     25  N   UNL     1       0.660  -7.589  -2.662  1.00  0.00    -0.192 NA
ATOM     26  F   UNL     1       0.375  -1.778  -3.387  1.00  0.00    -0.205 F 
ENDBRANCH   4  18
TORSDOF 3
