REMARK SMILES O=C(NC[C@H]1NCC[C@H]1C1CC1)c1ccc(N2CCCS2(=O)=O)cc1Cl
REMARK SMILES IDX 1 1 2 2 3 3 13 5 14 6 25 7 15 8 24 9 16 10 26 11 17 12 18 13
REMARK SMILES IDX 21 14 19 15 20 16 22 17 23 18 4 19 5 20 6 21 9 22 7 23 8 24
REMARK SMILES IDX 10 26 11 27 12 28
REMARK H PARENT 3 4 6 25
ROOT
ATOM      1  O   UNL     1      -1.477  -2.553  -1.076  1.00  0.00    -0.269 OA
ATOM      2  C   UNL     1      -0.590  -1.677  -1.267  1.00  0.00     0.252 C 
ATOM      3  N   UNL     1      -0.799  -0.650  -2.250  1.00  0.00    -0.350 N 
ATOM      4  H   UNL     1      -0.063   0.075  -2.404  1.00  0.00     0.163 HD
ENDROOT
BRANCH   2   5
ATOM      5  C   UNL     1       0.669  -1.726  -0.488  1.00  0.00     0.058 A 
ATOM      6  C   UNL     1       1.887  -1.452  -1.130  1.00  0.00     0.017 A 
ATOM      7  C   UNL     1       0.682  -2.058   0.884  1.00  0.00     0.055 A 
ATOM      8  C   UNL     1       3.092  -1.506  -0.428  1.00  0.00     0.028 A 
ATOM      9  C   UNL     1       1.894  -2.110   1.582  1.00  0.00     0.048 A 
ATOM     10  C   UNL     1       3.115  -1.834   0.939  1.00  0.00     0.053 A 
ATOM     11  Cl  UNL     1      -0.801  -2.360   1.788  1.00  0.00    -0.083 Cl
BRANCH  10  12
ATOM     12  N   UNL     1       4.365  -1.893   1.663  1.00  0.00    -0.270 N 
ATOM     13  C   UNL     1       5.683  -1.778   1.042  1.00  0.00     0.136 C 
ATOM     14  S   UNL     1       4.492  -1.925   3.375  1.00  0.00     0.235 S 
ATOM     15  C   UNL     1       6.766  -2.053   2.109  1.00  0.00     0.041 C 
ATOM     16  C   UNL     1       6.232  -1.698   3.500  1.00  0.00     0.162 C 
ATOM     17  O   UNL     1       4.065  -3.253   3.934  1.00  0.00    -0.206 OA
ATOM     18  O   UNL     1       3.738  -0.789   4.009  1.00  0.00    -0.206 OA
ENDBRANCH  10  12
ENDBRANCH   2   5
BRANCH   3  19
ATOM     19  C   UNL     1      -2.019  -0.567  -3.051  1.00  0.00     0.135 C 
BRANCH  19  20
ATOM     20  C   UNL     1      -3.182   0.006  -2.211  1.00  0.00     0.076 C 
ATOM     21  N   UNL     1      -2.912   1.367  -1.741  1.00  0.00    -0.312 NA
ATOM     22  C   UNL     1      -4.539   0.039  -2.920  1.00  0.00     0.012 C 
ATOM     23  C   UNL     1      -4.223   1.983  -1.513  1.00  0.00     0.081 C 
ATOM     24  C   UNL     1      -5.298   1.071  -2.103  1.00  0.00     0.021 C 
ATOM     25  H   UNL     1      -2.437   1.905  -2.506  1.00  0.00     0.123 HD
BRANCH  22  26
ATOM     26  C   UNL     1      -4.440   0.504  -4.392  1.00  0.00    -0.006 C 
ATOM     27  C   UNL     1      -5.658   0.183  -5.247  1.00  0.00     0.004 C 
ATOM     28  C   UNL     1      -4.372  -0.604  -5.434  1.00  0.00     0.004 C 
ENDBRANCH  22  26
ENDBRANCH  19  20
ENDBRANCH   3  19
TORSDOF 5
