REMARK SMILES N#Cc1cc(N(CC[C@H]2C[C@H](F)C2)Cc2ccns2)ncn1
REMARK SMILES IDX 7 1 6 2 5 3 1 4 2 5 3 6 4 7 22 8 21 9 20 10 14 11 15 12
REMARK SMILES IDX 16 13 19 14 17 15 18 16 8 17 9 18 10 19 13 20 11 21 12 22
REMARK H PARENT
ROOT
ATOM      1  C   UNL     1       0.558  -0.153  -1.500  1.00  0.00     0.119 C 
ENDROOT
BRANCH   1   2
ATOM      2  N   UNL     1       0.732  -0.011  -0.044  1.00  0.00    -0.351 N 
BRANCH   2   3
ATOM      3  C   UNL     1       0.293  -1.080   0.834  1.00  0.00     0.133 A 
ATOM      4  N   UNL     1      -0.445  -1.724   5.584  1.00  0.00    -0.191 NA
ATOM      5  C   UNL     1      -0.353  -1.838   4.436  1.00  0.00     0.120 C 
ATOM      6  C   UNL     1      -0.239  -1.979   3.010  1.00  0.00     0.145 A 
ATOM      7  C   UNL     1       0.191  -0.906   2.226  1.00  0.00     0.087 A 
ATOM      8  N   UNL     1      -0.554  -3.162   2.426  1.00  0.00    -0.225 NA
ATOM      9  C   UNL     1      -0.458  -3.321   1.082  1.00  0.00     0.225 A 
ATOM     10  N   UNL     1      -0.040  -2.291   0.304  1.00  0.00    -0.219 NA
ENDBRANCH   2   3
BRANCH   2  11
ATOM     11  C   UNL     1       1.430   1.178   0.474  1.00  0.00     0.166 C 
BRANCH  11  12
ATOM     12  C   UNL     1       2.770   0.799   1.021  1.00  0.00     0.045 A 
ATOM     13  C   UNL     1       3.241   0.987   2.313  1.00  0.00     0.039 A 
ATOM     14  S   UNL     1       4.017   0.068   0.195  1.00  0.00    -0.040 S 
ATOM     15  C   UNL     1       4.557   0.514   2.493  1.00  0.00     0.126 A 
ATOM     16  N   UNL     1       5.152  -0.037   1.403  1.00  0.00    -0.201 NA
ENDBRANCH  11  12
ENDBRANCH   2  11
ENDBRANCH   1   2
BRANCH   1  17
ATOM     17  C   UNL     1      -0.912   0.011  -1.912  1.00  0.00     0.025 C 
BRANCH  17  18
ATOM     18  C   UNL     1      -1.430   1.441  -1.664  1.00  0.00    -0.004 C 
ATOM     19  C   UNL     1      -2.848   1.666  -2.191  1.00  0.00     0.041 C 
ATOM     20  C   UNL     1      -1.925   1.704  -0.240  1.00  0.00     0.041 C 
ATOM     21  C   UNL     1      -3.330   1.942  -0.773  1.00  0.00     0.167 C 
ATOM     22  F   UNL     1      -3.732   3.257  -0.609  1.00  0.00    -0.247 F 
ENDBRANCH  17  18
ENDBRANCH   1  17
TORSDOF 6
