REMARK SMILES O=C(c1c[nH]nc1-c1ccc(Cl)s1)N1CCN(CC2CC2)CC1
REMARK SMILES IDX 1 1 2 2 14 3 15 4 16 5 17 6 22 7 23 8 3 9 4 10 7 11 5 12
REMARK SMILES IDX 6 13 8 15 9 16 13 17 10 18 11 19 12 20 18 21 19 22 20 23
REMARK SMILES IDX 21 24
REMARK H PARENT 5 14
ROOT
ATOM      1  O   UNL     1       0.850  -1.823  -4.780  1.00  0.00    -0.269 OA
ATOM      2  C   UNL     1       1.087  -1.822  -3.542  1.00  0.00     0.257 C 
ATOM      3  N   UNL     1      -0.007  -1.901  -2.607  1.00  0.00    -0.336 N 
ATOM      4  C   UNL     1       0.078  -2.776  -1.429  1.00  0.00     0.135 C 
ATOM      5  C   UNL     1      -0.638  -2.155  -0.210  1.00  0.00     0.106 C 
ATOM      6  N   UNL     1      -1.522  -1.024  -0.575  1.00  0.00    -0.300 NA
ATOM      7  C   UNL     1      -2.277  -1.337  -1.803  1.00  0.00     0.106 C 
ATOM      8  C   UNL     1      -1.313  -1.350  -2.992  1.00  0.00     0.135 C 
ENDROOT
BRANCH   2   9
ATOM      9  C   UNL     1       2.489  -1.760  -3.088  1.00  0.00     0.086 A 
ATOM     10  C   UNL     1       3.556  -2.412  -3.670  1.00  0.00     0.119 A 
ATOM     11  C   UNL     1       3.024  -1.141  -1.965  1.00  0.00     0.115 A 
ATOM     12  N   UNL     1       4.647  -2.201  -2.913  1.00  0.00    -0.284 N 
ATOM     13  N   UNL     1       4.336  -1.435  -1.879  1.00  0.00    -0.174 NA
ATOM     14  H   UNL     1       5.601  -2.581  -3.095  1.00  0.00     0.189 HD
BRANCH  11  15
ATOM     15  C   UNL     1       2.343  -0.241  -1.022  1.00  0.00     0.057 A 
ATOM     16  C   UNL     1       1.305   0.637  -1.321  1.00  0.00     0.024 A 
ATOM     17  S   UNL     1       2.762  -0.053   0.597  1.00  0.00    -0.122 S 
ATOM     18  C   UNL     1       0.888   1.394  -0.221  1.00  0.00     0.033 A 
ATOM     19  C   UNL     1       1.604   1.117   0.933  1.00  0.00     0.094 A 
ATOM     20  Cl  UNL     1       1.357   1.872   2.493  1.00  0.00    -0.072 Cl
ENDBRANCH  11  15
ENDBRANCH   2   9
BRANCH   6  21
ATOM     21  C   UNL     1      -2.425  -0.700   0.547  1.00  0.00     0.088 C 
BRANCH  21  22
ATOM     22  C   UNL     1      -2.969   0.728   0.399  1.00  0.00     0.003 C 
ATOM     23  C   UNL     1      -4.018   1.101   1.436  1.00  0.00     0.005 C 
ATOM     24  C   UNL     1      -4.430   0.860  -0.006  1.00  0.00     0.005 C 
ENDBRANCH  21  22
ENDBRANCH   6  21
TORSDOF 4
