REMARK SMILES O=C(Nc1cccc(OC(F)F)c1)c1ccc(Nc2ncccn2)cc1
REMARK SMILES IDX 4 1 5 2 6 3 7 4 8 5 13 6 3 7 1 8 2 9 14 11 15 12 26 13 16 14
REMARK SMILES IDX 25 15 17 16 18 17 19 19 20 20 24 21 21 22 23 23 22 24 9 25
REMARK SMILES IDX 10 26 11 27 12 28
REMARK H PARENT 3 10 18 18
ROOT
ATOM      1  C   UNL     1       0.352   2.681   1.135  1.00  0.00     0.045 A 
ATOM      2  C   UNL     1      -0.538   3.424   1.929  1.00  0.00     0.026 A 
ATOM      3  C   UNL     1      -0.150   4.660   2.451  1.00  0.00     0.006 A 
ATOM      4  C   UNL     1       1.129   5.158   2.200  1.00  0.00     0.047 A 
ATOM      5  C   UNL     1       2.040   4.423   1.433  1.00  0.00     0.128 A 
ATOM      6  C   UNL     1       1.645   3.176   0.907  1.00  0.00     0.072 A 
ENDROOT
BRANCH   1   7
ATOM      7  N   UNL     1      -0.012   1.394   0.607  1.00  0.00    -0.322 N 
ATOM      8  O   UNL     1      -2.192   1.985  -0.005  1.00  0.00    -0.269 OA
ATOM      9  C   UNL     1      -1.319   1.080   0.088  1.00  0.00     0.255 C 
ATOM     10  H   UNL     1       0.742   0.674   0.560  1.00  0.00     0.170 HD
BRANCH   9  11
ATOM     11  C   UNL     1      -1.661  -0.294  -0.353  1.00  0.00     0.040 A 
ATOM     12  C   UNL     1      -0.686  -1.161  -0.879  1.00  0.00     0.016 A 
ATOM     13  C   UNL     1      -2.993  -0.737  -0.280  1.00  0.00     0.016 A 
ATOM     14  C   UNL     1      -1.032  -2.451  -1.292  1.00  0.00     0.027 A 
ATOM     15  C   UNL     1      -3.337  -2.027  -0.693  1.00  0.00     0.027 A 
ATOM     16  C   UNL     1      -2.358  -2.903  -1.180  1.00  0.00     0.041 A 
BRANCH  16  17
ATOM     17  N   UNL     1      -2.742  -4.216  -1.621  1.00  0.00    -0.324 N 
ATOM     18  H   UNL     1      -3.709  -4.347  -1.995  1.00  0.00     0.170 HD
BRANCH  17  19
ATOM     19  C   UNL     1      -1.923  -5.386  -1.480  1.00  0.00     0.227 A 
ATOM     20  N   UNL     1      -2.276  -6.533  -2.121  1.00  0.00    -0.221 NA
ATOM     21  N   UNL     1      -0.827  -5.378  -0.671  1.00  0.00    -0.221 NA
ATOM     22  C   UNL     1      -1.540  -7.667  -1.986  1.00  0.00     0.117 A 
ATOM     23  C   UNL     1      -0.065  -6.491  -0.512  1.00  0.00     0.117 A 
ATOM     24  C   UNL     1      -0.408  -7.669  -1.173  1.00  0.00     0.040 A 
ENDBRANCH  17  19
ENDBRANCH  16  17
ENDBRANCH   9  11
ENDBRANCH   1   7
BRANCH   5  25
ATOM     25  O   UNL     1       3.317   4.963   1.218  1.00  0.00    -0.435 OA
BRANCH  25  26
ATOM     26  C   UNL     1       4.357   4.323   0.485  1.00  0.00     0.542 C 
ATOM     27  F   UNL     1       4.750   3.167   1.134  1.00  0.00    -0.167 F 
ATOM     28  F   UNL     1       5.439   5.178   0.397  1.00  0.00    -0.167 F 
ENDBRANCH  25  26
ENDBRANCH   5  25
TORSDOF 6
