REMARK SMILES O=C1CC[C@@H](NC(=O)c2cccnc2F)[C@H](c2ccccc2)N1
REMARK SMILES IDX 8 1 7 2 6 3 9 5 10 6 14 7 11 8 13 9 12 10 15 11 5 12 4 13
REMARK SMILES IDX 16 14 3 15 23 16 2 17 1 18 17 20 18 21 22 22 19 23 21 24
REMARK SMILES IDX 20 25
REMARK H PARENT 6 4 23 19
ROOT
ATOM      1  O   UNL     1       2.007   1.065   0.738  1.00  0.00    -0.269 OA
ATOM      2  C   UNL     1       1.635   0.477  -0.314  1.00  0.00     0.256 C 
ATOM      3  N   UNL     1       0.931  -0.773  -0.223  1.00  0.00    -0.347 N 
ATOM      4  H   UNL     1       0.786  -1.338  -1.089  1.00  0.00     0.164 HD
ENDROOT
BRANCH   2   5
ATOM      5  C   UNL     1       1.962   1.077  -1.629  1.00  0.00     0.094 A 
ATOM      6  C   UNL     1       3.139   1.830  -1.777  1.00  0.00     0.020 A 
ATOM      7  C   UNL     1       1.110   0.944  -2.743  1.00  0.00     0.225 A 
ATOM      8  C   UNL     1       3.458   2.403  -3.008  1.00  0.00     0.021 A 
ATOM      9  N   UNL     1       1.445   1.518  -3.930  1.00  0.00    -0.228 NA
ATOM     10  C   UNL     1       2.591   2.230  -4.087  1.00  0.00     0.114 A 
ATOM     11  F   UNL     1      -0.075   0.292  -2.648  1.00  0.00    -0.184 F 
ENDBRANCH   2   5
BRANCH   3  12
ATOM     12  C   UNL     1       0.316  -1.242   1.024  1.00  0.00     0.109 C 
ATOM     13  C   UNL     1       0.447  -2.770   1.122  1.00  0.00     0.037 C 
ATOM     14  C   UNL     1      -1.177  -0.836   1.066  1.00  0.00     0.134 C 
ATOM     15  C   UNL     1      -0.093  -3.278   2.460  1.00  0.00     0.102 C 
ATOM     16  N   UNL     1      -1.875  -1.472   2.190  1.00  0.00    -0.347 N 
ATOM     17  C   UNL     1      -1.461  -2.730   2.740  1.00  0.00     0.220 C 
ATOM     18  O   UNL     1      -2.227  -3.348   3.526  1.00  0.00    -0.275 OA
ATOM     19  H   UNL     1      -2.825  -1.117   2.446  1.00  0.00     0.164 HD
BRANCH  14  20
ATOM     20  C   UNL     1      -1.322   0.669   1.154  1.00  0.00    -0.024 A 
ATOM     21  C   UNL     1      -1.761   1.405   0.039  1.00  0.00     0.006 A 
ATOM     22  C   UNL     1      -0.973   1.355   2.332  1.00  0.00     0.006 A 
ATOM     23  C   UNL     1      -1.851   2.799   0.104  1.00  0.00     0.000 A 
ATOM     24  C   UNL     1      -1.066   2.748   2.392  1.00  0.00     0.000 A 
ATOM     25  C   UNL     1      -1.504   3.470   1.279  1.00  0.00     0.000 A 
ENDBRANCH  14  20
ENDBRANCH   3  12
TORSDOF 3
