REMARK SMILES O=C(NCC1CCOCC1)c1cnc(Nc2ccccc2)nc1C(F)(F)F
REMARK SMILES IDX 11 1 12 2 13 3 14 4 22 5 23 6 2 7 1 8 3 9 4 11 5 12 6 13
REMARK SMILES IDX 10 14 7 15 9 16 8 17 24 18 25 19 26 20 27 21 15 22 16 24
REMARK SMILES IDX 17 25 21 26 18 27 20 28 19 29
REMARK H PARENT 3 10 15 23
ROOT
ATOM      1  C   UNL     1      -1.594   0.151  -0.927  1.00  0.00     0.089 A 
ATOM      2  C   UNL     1      -0.199   0.238  -0.814  1.00  0.00     0.131 A 
ATOM      3  N   UNL     1       0.590   0.104  -1.909  1.00  0.00    -0.220 NA
ATOM      4  C   UNL     1       0.057  -0.131  -3.135  1.00  0.00     0.227 A 
ATOM      5  N   UNL     1      -1.291  -0.214  -3.275  1.00  0.00    -0.207 NA
ATOM      6  C   UNL     1      -2.136  -0.094  -2.214  1.00  0.00     0.162 A 
ENDROOT
BRANCH   1   7
ATOM      7  C   UNL     1      -2.427   0.331   0.286  1.00  0.00     0.255 C 
ATOM      8  O   UNL     1      -3.489   1.008   0.226  1.00  0.00    -0.269 OA
ATOM      9  N   UNL     1      -2.018  -0.241   1.537  1.00  0.00    -0.352 N 
ATOM     10  H   UNL     1      -1.186  -0.872   1.545  1.00  0.00     0.163 HD
BRANCH   9  11
ATOM     11  C   UNL     1      -2.768   0.014   2.770  1.00  0.00     0.120 C 
BRANCH  11  12
ATOM     12  C   UNL     1      -2.150  -0.669   4.008  1.00  0.00     0.013 C 
ATOM     13  C   UNL     1      -0.727  -0.170   4.314  1.00  0.00     0.034 C 
ATOM     14  C   UNL     1      -2.189  -2.211   3.920  1.00  0.00     0.034 C 
ATOM     15  C   UNL     1      -0.154  -0.875   5.568  1.00  0.00     0.160 C 
ATOM     16  C   UNL     1      -1.160  -2.851   4.868  1.00  0.00     0.160 C 
ATOM     17  O   UNL     1      -0.908  -2.007   5.975  1.00  0.00    -0.381 OA
ENDBRANCH  11  12
ENDBRANCH   9  11
ENDBRANCH   1   7
BRANCH   6  18
ATOM     18  C   UNL     1      -3.617  -0.230  -2.467  1.00  0.00     0.434 C 
ATOM     19  F   UNL     1      -3.841  -0.745  -3.733  1.00  0.00    -0.164 F 
ATOM     20  F   UNL     1      -4.221   1.011  -2.387  1.00  0.00    -0.164 F 
ATOM     21  F   UNL     1      -4.188  -1.088  -1.545  1.00  0.00    -0.164 F 
ENDBRANCH   6  18
BRANCH   4  22
ATOM     22  N   UNL     1       0.895  -0.239  -4.294  1.00  0.00    -0.324 N 
ATOM     23  H   UNL     1       0.444  -0.117  -5.229  1.00  0.00     0.170 HD
BRANCH  22  24
ATOM     24  C   UNL     1       2.324  -0.394  -4.247  1.00  0.00     0.041 A 
ATOM     25  C   UNL     1       2.945  -1.176  -3.256  1.00  0.00     0.026 A 
ATOM     26  C   UNL     1       3.114   0.194  -5.248  1.00  0.00     0.026 A 
ATOM     27  C   UNL     1       4.334  -1.332  -3.248  1.00  0.00     0.002 A 
ATOM     28  C   UNL     1       4.503   0.037  -5.236  1.00  0.00     0.002 A 
ATOM     29  C   UNL     1       5.113  -0.722  -4.234  1.00  0.00     0.000 A 
ENDBRANCH  22  24
ENDBRANCH   4  22
TORSDOF 6
