REMARK SMILES Cn1c(=O)n(C)c2cc(S(=O)(=O)Nc3ccc4c(c3)NCC4)c(Br)cc21
REMARK SMILES IDX 10 1 11 2 12 3 9 4 2 5 3 6 26 7 4 8 5 9 25 10 7 11 23 12
REMARK SMILES IDX 8 13 1 14 6 15 24 16 13 17 14 19 15 20 19 21 16 22 18 23
REMARK SMILES IDX 17 24 20 25 22 26 21 27
REMARK H PARENT 13 18 20 28
ROOT
ATOM      1  S   UNL     1      -1.468  -0.904  -2.863  1.00  0.00     0.263 S 
ATOM      2  O   UNL     1      -0.924  -2.163  -3.479  1.00  0.00    -0.201 OA
ATOM      3  O   UNL     1      -2.251  -0.150  -3.900  1.00  0.00    -0.201 OA
ENDROOT
BRANCH   1   4
ATOM      4  C   UNL     1      -0.150   0.125  -2.284  1.00  0.00     0.104 A 
ATOM      5  N   UNL     1       2.763   2.540  -0.663  1.00  0.00    -0.295 N 
ATOM      6  C   UNL     1       2.161   2.736   0.536  1.00  0.00     0.328 A 
ATOM      7  C   UNL     1       1.914   1.732  -1.330  1.00  0.00     0.070 A 
ATOM      8  O   UNL     1       2.629   3.486   1.436  1.00  0.00    -0.248 OA
ATOM      9  N   UNL     1       0.994   2.056   0.661  1.00  0.00    -0.295 N 
ATOM     10  C   UNL     1       2.003   1.259  -2.637  1.00  0.00     0.045 A 
ATOM     11  C   UNL     1       0.844   1.440  -0.529  1.00  0.00     0.070 A 
ATOM     12  C   UNL     1       0.961   0.445  -3.121  1.00  0.00     0.040 A 
ATOM     13  C   UNL     1      -0.214   0.651  -0.975  1.00  0.00     0.052 A 
ATOM     14  C   UNL     1       3.978   3.175  -1.169  1.00  0.00     0.155 C 
ATOM     15  C   UNL     1       0.052   2.088   1.776  1.00  0.00     0.155 C 
ATOM     16  Br  UNL     1       1.091  -0.175  -4.931  1.00  0.00    -0.049 Br
ENDBRANCH   1   4
BRANCH   1  17
ATOM     17  N   UNL     1      -2.538  -1.336  -1.564  1.00  0.00    -0.280 N 
ATOM     18  H   UNL     1      -3.512  -0.962  -1.612  1.00  0.00     0.180 HD
BRANCH  17  19
ATOM     19  C   UNL     1      -2.166  -2.171  -0.452  1.00  0.00     0.051 A 
ATOM     20  C   UNL     1      -0.849  -2.679  -0.301  1.00  0.00     0.027 A 
ATOM     21  C   UNL     1      -3.136  -2.478   0.525  1.00  0.00     0.052 A 
ATOM     22  C   UNL     1      -0.513  -3.476   0.806  1.00  0.00     0.008 A 
ATOM     23  C   UNL     1      -2.767  -3.272   1.610  1.00  0.00     0.039 A 
ATOM     24  C   UNL     1      -1.500  -3.757   1.749  1.00  0.00    -0.023 A 
ATOM     25  N   UNL     1      -3.598  -3.673   2.677  1.00  0.00    -0.384 N 
ATOM     26  C   UNL     1      -1.387  -4.565   2.995  1.00  0.00     0.059 C 
ATOM     27  C   UNL     1      -2.813  -4.491   3.598  1.00  0.00     0.117 C 
ATOM     28  H   UNL     1      -4.606  -3.426   2.791  1.00  0.00     0.160 HD
ENDBRANCH  17  19
ENDBRANCH   1  17
TORSDOF 3
