REMARK SMILES CC1(Cn2cc(C(=O)N[C@@H]3C[C@H]3c3cccc(F)c3)nn2)COC1
REMARK SMILES IDX 4 1 5 2 6 3 20 4 21 5 3 6 2 7 22 8 24 9 23 10 1 11 7 12 8 13
REMARK SMILES IDX 9 14 10 16 11 17 12 18 13 19 14 20 19 21 15 22 17 23 16 24
REMARK SMILES IDX 18 25
REMARK H PARENT 9 15
ROOT
ATOM      1  N   UNL     1       0.150  -3.117  -1.218  1.00  0.00    -0.251 N 
ATOM      2  C   UNL     1       0.167  -1.858  -0.749  1.00  0.00     0.145 A 
ATOM      3  C   UNL     1       0.770  -1.095  -1.728  1.00  0.00     0.170 A 
ATOM      4  N   UNL     1       1.098  -1.907  -2.754  1.00  0.00    -0.125 NA
ATOM      5  N   UNL     1       0.707  -3.128  -2.418  1.00  0.00    -0.067 NA
ENDROOT
BRANCH   1   6
ATOM      6  C   UNL     1      -0.419  -4.292  -0.561  1.00  0.00     0.157 C 
BRANCH   6   7
ATOM      7  C   UNL     1      -1.928  -4.427  -0.862  1.00  0.00     0.034 C 
ATOM      8  C   UNL     1      -2.614  -5.496  -0.029  1.00  0.00     0.171 C 
ATOM      9  C   UNL     1      -2.822  -3.493  -0.066  1.00  0.00     0.171 C 
ATOM     10  O   UNL     1      -3.408  -4.553   0.652  1.00  0.00    -0.380 OA
ATOM     11  C   UNL     1      -2.277  -4.503  -2.358  1.00  0.00     0.018 C 
ENDBRANCH   6   7
ENDBRANCH   1   6
BRANCH   3  12
ATOM     12  C   UNL     1       1.038   0.352  -1.705  1.00  0.00     0.273 C 
ATOM     13  O   UNL     1       1.642   0.878  -2.679  1.00  0.00    -0.267 OA
ATOM     14  N   UNL     1       0.622   1.166  -0.599  1.00  0.00    -0.347 N 
ATOM     15  H   UNL     1       0.037   0.756   0.162  1.00  0.00     0.164 HD
BRANCH  14  16
ATOM     16  C   UNL     1       0.875   2.604  -0.577  1.00  0.00     0.090 C 
ATOM     17  C   UNL     1       2.321   2.946  -0.231  1.00  0.00     0.036 C 
ATOM     18  C   UNL     1       1.220   3.145   0.806  1.00  0.00     0.044 C 
BRANCH  18  19
ATOM     19  C   UNL     1       0.822   4.579   1.109  1.00  0.00    -0.040 A 
ATOM     20  C   UNL     1       0.746   5.594   0.129  1.00  0.00     0.004 A 
ATOM     21  C   UNL     1       0.514   4.905   2.442  1.00  0.00     0.043 A 
ATOM     22  C   UNL     1       0.369   6.893   0.484  1.00  0.00     0.003 A 
ATOM     23  C   UNL     1       0.138   6.206   2.790  1.00  0.00     0.123 A 
ATOM     24  C   UNL     1       0.066   7.199   1.811  1.00  0.00     0.039 A 
ATOM     25  F   UNL     1      -0.157   6.504   4.079  1.00  0.00    -0.207 F 
ENDBRANCH  18  19
ENDBRANCH  14  16
ENDBRANCH   3  12
TORSDOF 5
