REMARK SMILES C[C@H](NC(=O)c1ccc(Oc2ccc(Cl)cc2)cc1)[C@@H]1CCNC1
REMARK SMILES IDX 6 1 7 2 8 3 9 4 18 5 19 6 4 7 3 8 5 9 2 11 1 12 20 13 21 14
REMARK SMILES IDX 24 15 22 16 23 17 10 19 11 20 12 21 17 22 13 23 16 24 14 25
REMARK SMILES IDX 15 26
REMARK H PARENT 3 10 23 18
ROOT
ATOM      1  C   UNL     1      -0.200  -0.540  -0.434  1.00  0.00     0.040 A 
ATOM      2  C   UNL     1       0.124  -1.902  -0.574  1.00  0.00     0.017 A 
ATOM      3  C   UNL     1       1.290  -2.288  -1.242  1.00  0.00     0.048 A 
ATOM      4  C   UNL     1       2.139  -1.328  -1.802  1.00  0.00     0.127 A 
ATOM      5  C   UNL     1       1.827   0.033  -1.656  1.00  0.00     0.048 A 
ATOM      6  C   UNL     1       0.663   0.423  -0.988  1.00  0.00     0.017 A 
ENDROOT
BRANCH   1   7
ATOM      7  C   UNL     1      -1.443  -0.111   0.254  1.00  0.00     0.251 C 
ATOM      8  N   UNL     1      -2.099  -0.964   1.208  1.00  0.00    -0.349 N 
ATOM      9  O   UNL     1      -1.923   1.028   0.003  1.00  0.00    -0.269 OA
ATOM     10  H   UNL     1      -1.589  -1.794   1.584  1.00  0.00     0.164 HD
BRANCH   8  11
ATOM     11  C   UNL     1      -3.402  -0.626   1.792  1.00  0.00     0.083 C 
ATOM     12  C   UNL     1      -4.171  -1.915   2.132  1.00  0.00     0.031 C 
BRANCH  11  13
ATOM     13  C   UNL     1      -3.213   0.344   2.996  1.00  0.00     0.026 C 
ATOM     14  C   UNL     1      -2.403  -0.240   4.152  1.00  0.00     0.022 C 
ATOM     15  C   UNL     1      -4.534   0.787   3.628  1.00  0.00     0.086 C 
ATOM     16  C   UNL     1      -3.346  -0.264   5.349  1.00  0.00     0.081 C 
ATOM     17  N   UNL     1      -4.694   0.069   4.890  1.00  0.00    -0.316 NA
ATOM     18  H   UNL     1      -5.201  -0.826   4.694  1.00  0.00     0.122 HD
ENDBRANCH  11  13
ENDBRANCH   8  11
ENDBRANCH   1   7
BRANCH   4  19
ATOM     19  O   UNL     1       3.303  -1.755  -2.459  1.00  0.00    -0.457 OA
BRANCH  19  20
ATOM     20  C   UNL     1       3.913  -1.096  -3.536  1.00  0.00     0.127 A 
ATOM     21  C   UNL     1       5.299  -1.213  -3.701  1.00  0.00     0.048 A 
ATOM     22  C   UNL     1       3.166  -0.367  -4.481  1.00  0.00     0.048 A 
ATOM     23  C   UNL     1       5.939  -0.581  -4.771  1.00  0.00     0.024 A 
ATOM     24  C   UNL     1       3.808   0.262  -5.552  1.00  0.00     0.024 A 
ATOM     25  C   UNL     1       5.195   0.160  -5.695  1.00  0.00     0.041 A 
ATOM     26  Cl  UNL     1       5.999   0.946  -7.042  1.00  0.00    -0.084 Cl
ENDBRANCH  19  20
ENDBRANCH   4  19
TORSDOF 5
