REMARK SMILES Cc1cc(F)c2nc(O)cc(C(=O)N3CC[C@@H](Nc4ccccc4)C3)c2c1
REMARK SMILES IDX 12 1 13 2 11 3 2 4 3 5 27 6 4 7 26 8 6 9 7 10 10 11 8 12
REMARK SMILES IDX 1 13 5 14 9 15 14 17 15 18 25 19 16 20 17 21 18 22 19 24
REMARK SMILES IDX 20 25 24 26 21 27 23 28 22 29
REMARK H PARENT 9 16 18 23
ROOT
ATOM      1  C   UNL     1       0.798   2.038  -1.137  1.00  0.00     0.254 C 
ATOM      2  O   UNL     1       0.976   3.285  -1.095  1.00  0.00    -0.269 OA
ENDROOT
BRANCH   1   3
ATOM      3  C   UNL     1      -0.275   1.499  -1.994  1.00  0.00     0.054 A 
ATOM      4  C   UNL     1      -2.850   0.194   0.404  1.00  0.00    -0.047 A 
ATOM      5  C   UNL     1      -3.768  -0.356  -0.501  1.00  0.00     0.045 A 
ATOM      6  C   UNL     1      -1.681   0.805  -0.078  1.00  0.00     0.014 A 
ATOM      7  C   UNL     1      -3.547  -0.266  -1.876  1.00  0.00     0.149 A 
ATOM      8  C   UNL     1      -1.436   0.889  -1.464  1.00  0.00     0.017 A 
ATOM      9  C   UNL     1      -2.394   0.359  -2.363  1.00  0.00     0.111 A 
ATOM     10  N   UNL     1      -2.197   0.459  -3.705  1.00  0.00    -0.210 NA
ATOM     11  C   UNL     1      -0.123   1.593  -3.384  1.00  0.00     0.082 A 
ATOM     12  C   UNL     1      -1.097   1.060  -4.228  1.00  0.00     0.212 A 
ATOM     13  C   UNL     1      -3.086   0.069   1.880  1.00  0.00     0.044 C 
ATOM     14  F   UNL     1      -4.458  -0.787  -2.736  1.00  0.00    -0.205 F 
BRANCH  12  15
ATOM     15  O   UNL     1      -0.939   1.144  -5.608  1.00  0.00    -0.493 OA
ATOM     16  H   UNL     1      -1.636   0.762  -6.235  1.00  0.00     0.295 HD
ENDBRANCH  12  15
ENDBRANCH   1   3
BRANCH   1  17
ATOM     17  N   UNL     1       1.663   1.165  -0.389  1.00  0.00    -0.336 N 
ATOM     18  C   UNL     1       2.725   1.663   0.470  1.00  0.00     0.122 C 
ATOM     19  C   UNL     1       1.650  -0.283  -0.516  1.00  0.00     0.144 C 
ATOM     20  C   UNL     1       3.436   0.436   1.033  1.00  0.00     0.048 C 
ATOM     21  C   UNL     1       2.841  -0.779   0.305  1.00  0.00     0.100 C 
BRANCH  21  22
ATOM     22  N   UNL     1       2.485  -1.876   1.220  1.00  0.00    -0.380 N 
ATOM     23  H   UNL     1       2.986  -2.779   1.056  1.00  0.00     0.160 HD
BRANCH  22  24
ATOM     24  C   UNL     1       1.523  -1.843   2.300  1.00  0.00     0.034 A 
ATOM     25  C   UNL     1       0.793  -0.684   2.638  1.00  0.00     0.025 A 
ATOM     26  C   UNL     1       1.312  -3.013   3.051  1.00  0.00     0.025 A 
ATOM     27  C   UNL     1      -0.109  -0.700   3.707  1.00  0.00     0.002 A 
ATOM     28  C   UNL     1       0.401  -3.026   4.112  1.00  0.00     0.002 A 
ATOM     29  C   UNL     1      -0.308  -1.870   4.440  1.00  0.00     0.000 A 
ENDBRANCH  22  24
ENDBRANCH  21  22
ENDBRANCH   1  17
TORSDOF 5
