REMARK SMILES O=C(Nc1cccc(OC(F)F)c1)c1ccc(Nc2ncccn2)cc1
REMARK SMILES IDX 4 1 5 2 6 3 7 4 8 5 13 6 3 7 1 8 2 9 14 11 15 12 26 13 16 14
REMARK SMILES IDX 25 15 17 16 18 17 19 19 20 20 24 21 21 22 23 23 22 24 9 25
REMARK SMILES IDX 10 26 11 27 12 28
REMARK H PARENT 3 10 18 18
ROOT
ATOM      1  C   UNL     1       3.117  -0.817  -0.382  1.00  0.00     0.045 A 
ATOM      2  C   UNL     1       3.689  -1.950   0.224  1.00  0.00     0.026 A 
ATOM      3  C   UNL     1       5.076  -2.099   0.269  1.00  0.00     0.006 A 
ATOM      4  C   UNL     1       5.905  -1.129  -0.298  1.00  0.00     0.047 A 
ATOM      5  C   UNL     1       5.357  -0.004  -0.924  1.00  0.00     0.128 A 
ATOM      6  C   UNL     1       3.956   0.143  -0.970  1.00  0.00     0.072 A 
ENDROOT
BRANCH   1   7
ATOM      7  N   UNL     1       1.690  -0.653  -0.464  1.00  0.00    -0.322 N 
ATOM      8  O   UNL     1       1.183  -1.367   1.702  1.00  0.00    -0.269 OA
ATOM      9  C   UNL     1       0.772  -1.139   0.531  1.00  0.00     0.255 C 
ATOM     10  H   UNL     1       1.311  -0.049  -1.227  1.00  0.00     0.170 HD
BRANCH   9  11
ATOM     11  C   UNL     1      -0.664  -1.328   0.212  1.00  0.00     0.040 A 
ATOM     12  C   UNL     1      -1.097  -1.462  -1.120  1.00  0.00     0.016 A 
ATOM     13  C   UNL     1      -1.614  -1.409   1.245  1.00  0.00     0.016 A 
ATOM     14  C   UNL     1      -2.452  -1.645  -1.411  1.00  0.00     0.027 A 
ATOM     15  C   UNL     1      -2.969  -1.592   0.952  1.00  0.00     0.027 A 
ATOM     16  C   UNL     1      -3.402  -1.689  -0.377  1.00  0.00     0.041 A 
BRANCH  16  17
ATOM     17  N   UNL     1      -4.798  -1.901  -0.650  1.00  0.00    -0.324 N 
ATOM     18  H   UNL     1      -5.367  -2.413   0.062  1.00  0.00     0.170 HD
BRANCH  17  19
ATOM     19  C   UNL     1      -5.489  -1.361  -1.785  1.00  0.00     0.227 A 
ATOM     20  N   UNL     1      -4.926  -0.382  -2.546  1.00  0.00    -0.221 NA
ATOM     21  N   UNL     1      -6.746  -1.796  -2.074  1.00  0.00    -0.221 NA
ATOM     22  C   UNL     1      -5.588   0.153  -3.604  1.00  0.00     0.117 A 
ATOM     23  C   UNL     1      -7.441  -1.285  -3.124  1.00  0.00     0.117 A 
ATOM     24  C   UNL     1      -6.870  -0.292  -3.919  1.00  0.00     0.040 A 
ENDBRANCH  17  19
ENDBRANCH  16  17
ENDBRANCH   9  11
ENDBRANCH   1   7
BRANCH   5  25
ATOM     25  O   UNL     1       6.234   0.936  -1.487  1.00  0.00    -0.435 OA
BRANCH  25  26
ATOM     26  C   UNL     1       5.830   2.141  -2.131  1.00  0.00     0.542 C 
ATOM     27  F   UNL     1       5.213   2.980  -1.220  1.00  0.00    -0.167 F 
ATOM     28  F   UNL     1       6.945   2.776  -2.642  1.00  0.00    -0.167 F 
ENDBRANCH  25  26
ENDBRANCH   5  25
TORSDOF 6
