REMARK SMILES CC[C@](C)(O)Cc1cn(Cc2cc(C(F)(F)F)ncc2F)nn1
REMARK SMILES IDX 7 1 8 2 9 3 22 4 23 5 6 6 3 7 4 8 2 9 1 10 5 11 10 13 11 14
REMARK SMILES IDX 12 15 20 16 13 17 19 18 18 19 21 20 14 21 15 22 16 23 17 24
REMARK H PARENT 5 12
ROOT
ATOM      1  C   UNL     1      -1.222  -1.092  -1.400  1.00  0.00     0.086 A 
ATOM      2  C   UNL     1      -0.431  -0.605  -0.382  1.00  0.00     0.135 A 
ATOM      3  N   UNL     1       0.300   0.384  -0.920  1.00  0.00    -0.248 N 
ATOM      4  N   UNL     1       0.001   0.479  -2.206  1.00  0.00    -0.067 NA
ATOM      5  N   UNL     1      -0.927  -0.412  -2.528  1.00  0.00    -0.135 NA
ENDROOT
BRANCH   1   6
ATOM      6  C   UNL     1      -2.173  -2.254  -1.326  1.00  0.00     0.094 C 
BRANCH   6   7
ATOM      7  C   UNL     1      -3.482  -1.982  -0.521  1.00  0.00     0.067 C 
ATOM      8  C   UNL     1      -4.071  -3.344  -0.105  1.00  0.00     0.042 C 
BRANCH   7   9
ATOM      9  C   UNL     1      -4.579  -1.246  -1.358  1.00  0.00     0.032 C 
ATOM     10  C   UNL     1      -4.134   0.031  -2.078  1.00  0.00     0.007 C 
ENDBRANCH   7   9
BRANCH   7  11
ATOM     11  O   UNL     1      -3.204  -1.289   0.675  1.00  0.00    -0.390 OA
ATOM     12  H   UNL     1      -3.052  -0.334   0.467  1.00  0.00     0.211 HD
ENDBRANCH   7  11
ENDBRANCH   6   7
ENDBRANCH   1   6
BRANCH   3  13
ATOM     13  C   UNL     1       1.340   1.161  -0.257  1.00  0.00     0.184 C 
BRANCH  13  14
ATOM     14  C   UNL     1       2.664   0.458  -0.385  1.00  0.00     0.013 A 
ATOM     15  C   UNL     1       3.469   0.681  -1.512  1.00  0.00     0.042 A 
ATOM     16  C   UNL     1       3.080  -0.475   0.579  1.00  0.00     0.146 A 
ATOM     17  C   UNL     1       4.684  -0.007  -1.646  1.00  0.00     0.144 A 
ATOM     18  C   UNL     1       4.296  -1.141   0.409  1.00  0.00     0.151 A 
ATOM     19  N   UNL     1       5.062  -0.896  -0.686  1.00  0.00    -0.249 NA
ATOM     20  F   UNL     1       2.318  -0.740   1.669  1.00  0.00    -0.205 F 
BRANCH  17  21
ATOM     21  C   UNL     1       5.556   0.222  -2.845  1.00  0.00     0.433 C 
ATOM     22  F   UNL     1       4.873  -0.141  -3.992  1.00  0.00    -0.165 F 
ATOM     23  F   UNL     1       5.899   1.559  -2.923  1.00  0.00    -0.165 F 
ATOM     24  F   UNL     1       6.713  -0.532  -2.756  1.00  0.00    -0.165 F 
ENDBRANCH  17  21
ENDBRANCH  13  14
ENDBRANCH   3  13
TORSDOF 7
