REMARK SMILES Cc1cc(F)c2nc(O)cc(C(=O)N3CC[C@@H](Nc4ccccc4)C3)c2c1
REMARK SMILES IDX 12 1 13 2 11 3 2 4 3 5 27 6 4 7 26 8 6 9 7 10 10 11 8 12
REMARK SMILES IDX 1 13 5 14 9 15 14 17 15 18 25 19 16 20 17 21 18 22 19 24
REMARK SMILES IDX 20 25 24 26 21 27 23 28 22 29
REMARK H PARENT 9 16 18 23
ROOT
ATOM      1  C   UNL     1       0.799   1.798  -0.088  1.00  0.00     0.254 C 
ATOM      2  O   UNL     1       1.579   2.119  -1.025  1.00  0.00    -0.269 OA
ENDROOT
BRANCH   1   3
ATOM      3  C   UNL     1       1.093   2.265   1.281  1.00  0.00     0.054 A 
ATOM      4  C   UNL     1       1.705  -0.875   3.244  1.00  0.00    -0.047 A 
ATOM      5  C   UNL     1       1.888  -0.332   4.523  1.00  0.00     0.045 A 
ATOM      6  C   UNL     1       1.434  -0.025   2.161  1.00  0.00     0.014 A 
ATOM      7  C   UNL     1       1.843   1.050   4.717  1.00  0.00     0.149 A 
ATOM      8  C   UNL     1       1.363   1.371   2.345  1.00  0.00     0.017 A 
ATOM      9  C   UNL     1       1.590   1.904   3.637  1.00  0.00     0.111 A 
ATOM     10  N   UNL     1       1.570   3.249   3.832  1.00  0.00    -0.210 NA
ATOM     11  C   UNL     1       1.102   3.644   1.526  1.00  0.00     0.082 A 
ATOM     12  C   UNL     1       1.338   4.121   2.816  1.00  0.00     0.212 A 
ATOM     13  C   UNL     1       1.726  -2.362   3.046  1.00  0.00     0.044 C 
ATOM     14  F   UNL     1       2.045   1.558   5.959  1.00  0.00    -0.205 F 
BRANCH  12  15
ATOM     15  O   UNL     1       1.332   5.490   3.060  1.00  0.00    -0.493 OA
ATOM     16  H   UNL     1       1.500   5.853   3.991  1.00  0.00     0.295 HD
ENDBRANCH  12  15
ENDBRANCH   1   3
BRANCH   1  17
ATOM     17  N   UNL     1      -0.372   1.013  -0.370  1.00  0.00    -0.336 N 
ATOM     18  C   UNL     1      -1.510   0.898   0.528  1.00  0.00     0.122 C 
ATOM     19  C   UNL     1      -0.592   0.351  -1.643  1.00  0.00     0.144 C 
ATOM     20  C   UNL     1      -2.614   0.255  -0.299  1.00  0.00     0.048 C 
ATOM     21  C   UNL     1      -1.897  -0.428  -1.472  1.00  0.00     0.100 C 
BRANCH  21  22
ATOM     22  N   UNL     1      -2.703  -0.413  -2.700  1.00  0.00    -0.380 N 
ATOM     23  H   UNL     1      -3.606   0.114  -2.701  1.00  0.00     0.160 HD
BRANCH  22  24
ATOM     24  C   UNL     1      -2.327  -1.082  -3.921  1.00  0.00     0.034 A 
ATOM     25  C   UNL     1      -1.240  -1.978  -3.978  1.00  0.00     0.025 A 
ATOM     26  C   UNL     1      -3.072  -0.846  -5.089  1.00  0.00     0.025 A 
ATOM     27  C   UNL     1      -0.907  -2.609  -5.181  1.00  0.00     0.002 A 
ATOM     28  C   UNL     1      -2.735  -1.479  -6.289  1.00  0.00     0.002 A 
ATOM     29  C   UNL     1      -1.652  -2.359  -6.335  1.00  0.00     0.000 A 
ENDBRANCH  22  24
ENDBRANCH  21  22
ENDBRANCH   1  17
TORSDOF 5
