REMARK SMILES CN1CCc2ccc(NC(=O)CN3CCCNC3=O)cc2C1=O
REMARK SMILES IDX 9 1 10 2 11 3 8 5 2 6 3 7 22 8 4 9 21 10 23 11 5 12 20 13
REMARK SMILES IDX 6 14 7 15 1 16 12 17 13 18 14 19 18 20 15 21 17 22 19 23
REMARK SMILES IDX 16 24
REMARK H PARENT 9 4 17 25
ROOT
ATOM      1  N   UNL     1       0.671   1.502   0.914  1.00  0.00    -0.325 N 
ATOM      2  C   UNL     1       0.689   2.144   2.198  1.00  0.00     0.244 C 
ATOM      3  O   UNL     1      -0.377   2.295   2.855  1.00  0.00    -0.273 OA
ATOM      4  H   UNL     1       1.476   1.679   0.271  1.00  0.00     0.169 HD
ENDROOT
BRANCH   1   5
ATOM      5  C   UNL     1      -0.415   0.693   0.432  1.00  0.00     0.042 A 
ATOM      6  N   UNL     1      -3.185  -0.911  -3.345  1.00  0.00    -0.341 N 
ATOM      7  C   UNL     1      -4.215  -1.270  -2.361  1.00  0.00     0.124 C 
ATOM      8  C   UNL     1      -2.003  -0.225  -2.895  1.00  0.00     0.253 C 
ATOM      9  C   UNL     1      -3.572  -1.842  -1.093  1.00  0.00     0.058 C 
ATOM     10  C   UNL     1      -1.712  -0.163  -1.447  1.00  0.00     0.045 A 
ATOM     11  O   UNL     1      -1.218   0.303  -3.729  1.00  0.00    -0.269 OA
ATOM     12  C   UNL     1      -2.502  -0.920  -0.560  1.00  0.00    -0.033 A 
ATOM     13  C   UNL     1      -0.670   0.635  -0.946  1.00  0.00     0.040 A 
ATOM     14  C   UNL     1      -2.218  -0.894   0.813  1.00  0.00     0.007 A 
ATOM     15  C   UNL     1      -1.185  -0.093   1.306  1.00  0.00     0.026 A 
ATOM     16  C   UNL     1      -3.375  -1.195  -4.769  1.00  0.00     0.147 C 
ENDBRANCH   1   5
BRANCH   2  17
ATOM     17  C   UNL     1       1.976   2.678   2.748  1.00  0.00     0.221 C 
BRANCH  17  18
ATOM     18  N   UNL     1       2.949   1.589   2.894  1.00  0.00    -0.315 N 
ATOM     19  C   UNL     1       4.123   1.527   2.014  1.00  0.00     0.124 C 
ATOM     20  C   UNL     1       2.788   0.593   3.922  1.00  0.00     0.317 C 
ATOM     21  C   UNL     1       4.493   0.073   1.710  1.00  0.00     0.043 C 
ATOM     22  N   UNL     1       3.635  -0.561   3.934  1.00  0.00    -0.338 N 
ATOM     23  O   UNL     1       1.887   0.714   4.795  1.00  0.00    -0.249 OA
ATOM     24  C   UNL     1       4.761  -0.689   3.011  1.00  0.00     0.119 C 
ATOM     25  H   UNL     1       3.528  -1.265   4.699  1.00  0.00     0.165 HD
ENDBRANCH  17  18
ENDBRANCH   2  17
TORSDOF 3
