REMARK SMILES c1ccc(Nc2nc(OCC3CCCCC3)c3[nH]cnc3n2)cc1
REMARK SMILES IDX 6 1 7 2 8 3 17 4 18 5 19 6 20 7 21 8 22 9 5 11 4 13 1 14
REMARK SMILES IDX 2 15 24 16 3 17 23 18 9 19 10 20 11 21 12 22 16 23 13 24
REMARK SMILES IDX 15 25 14 26
REMARK H PARENT 18 10 5 12
ROOT
ATOM      1  C   UNL     1      -1.216  -2.776  -2.481  1.00  0.00     0.232 A 
ATOM      2  N   UNL     1      -0.754  -2.262  -1.294  1.00  0.00    -0.175 NA
ATOM      3  C   UNL     1       0.033  -2.991  -0.450  1.00  0.00     0.245 A 
ATOM      4  C   UNL     1       0.354  -4.282  -0.840  1.00  0.00     0.148 A 
ATOM      5  N   UNL     1       1.099  -5.208  -0.227  1.00  0.00    -0.339 N 
ATOM      6  C   UNL     1       1.065  -6.263  -1.081  1.00  0.00     0.199 A 
ATOM      7  N   UNL     1       0.330  -6.035  -2.204  1.00  0.00    -0.217 NA
ATOM      8  C   UNL     1      -0.101  -4.777  -2.013  1.00  0.00     0.186 A 
ATOM      9  N   UNL     1      -0.879  -4.050  -2.851  1.00  0.00    -0.191 NA
ATOM     10  H   UNL     1       1.594  -5.138   0.690  1.00  0.00     0.168 HD
ENDROOT
BRANCH   1  11
ATOM     11  N   UNL     1      -2.002  -1.964  -3.365  1.00  0.00    -0.324 N 
ATOM     12  H   UNL     1      -2.117  -2.289  -4.352  1.00  0.00     0.170 HD
BRANCH  11  13
ATOM     13  C   UNL     1      -2.455  -0.645  -3.024  1.00  0.00     0.041 A 
ATOM     14  C   UNL     1      -3.283   1.957  -2.374  1.00  0.00     0.000 A 
ATOM     15  C   UNL     1      -3.412   0.930  -1.436  1.00  0.00     0.002 A 
ATOM     16  C   UNL     1      -2.762   1.685  -3.642  1.00  0.00     0.002 A 
ATOM     17  C   UNL     1      -3.009  -0.369  -1.760  1.00  0.00     0.026 A 
ATOM     18  C   UNL     1      -2.357   0.387  -3.969  1.00  0.00     0.026 A 
ENDBRANCH  11  13
ENDBRANCH   1  11
BRANCH   3  19
ATOM     19  O   UNL     1       0.502  -2.463   0.759  1.00  0.00    -0.476 OA
BRANCH  19  20
ATOM     20  C   UNL     1       0.211  -1.139   1.211  1.00  0.00     0.235 C 
BRANCH  20  21
ATOM     21  C   UNL     1       1.396  -0.185   0.941  1.00  0.00     0.027 C 
ATOM     22  C   UNL     1       1.204   1.174   1.650  1.00  0.00     0.007 C 
ATOM     23  C   UNL     1       1.683   0.029  -0.563  1.00  0.00     0.007 C 
ATOM     24  C   UNL     1       0.146   2.049   0.961  1.00  0.00     0.000 C 
ATOM     25  C   UNL     1       0.630   0.915  -1.243  1.00  0.00     0.000 C 
ATOM     26  C   UNL     1       0.481   2.256  -0.520  1.00  0.00     0.000 C 
ENDBRANCH  20  21
ENDBRANCH  19  20
ENDBRANCH   3  19
TORSDOF 5
