REMARK SMILES COc1ccc([C@H](NC(=O)c2ccccc2SCC(=O)N2CCCC2)C(F)F)cc1
REMARK SMILES IDX 8 1 9 2 10 3 7 5 6 6 3 7 4 8 30 9 5 10 29 11 2 12 1 13 26 14
REMARK SMILES IDX 27 15 28 16 11 17 12 18 16 19 13 20 15 21 14 22 17 23 18 24
REMARK SMILES IDX 19 25 20 26 21 27 22 28 25 29 23 30 24 31
REMARK H PARENT 8 4
ROOT
ATOM      1  N   UNL     1      -0.857  -0.731  -0.062  1.00  0.00    -0.339 N 
ATOM      2  C   UNL     1      -0.662   0.617  -0.518  1.00  0.00     0.253 C 
ATOM      3  O   UNL     1       0.111   1.388   0.113  1.00  0.00    -0.269 OA
ATOM      4  H   UNL     1      -1.675  -1.266  -0.432  1.00  0.00     0.164 HD
ENDROOT
BRANCH   1   5
ATOM      5  C   UNL     1      -0.042  -1.325   1.003  1.00  0.00     0.179 C 
BRANCH   5   6
ATOM      6  C   UNL     1      -0.612  -0.998   2.368  1.00  0.00    -0.020 A 
ATOM      7  C   UNL     1      -1.627  -0.481   4.949  1.00  0.00     0.118 A 
ATOM      8  C   UNL     1      -0.251  -0.423   4.704  1.00  0.00     0.047 A 
ATOM      9  C   UNL     1      -2.500  -0.801   3.893  1.00  0.00     0.047 A 
ATOM     10  C   UNL     1       0.254  -0.684   3.428  1.00  0.00     0.010 A 
ATOM     11  C   UNL     1      -1.995  -1.064   2.616  1.00  0.00     0.010 A 
BRANCH   7  12
ATOM     12  O   UNL     1      -2.082  -0.222   6.250  1.00  0.00    -0.497 OA
ATOM     13  C   UNL     1      -3.450  -0.246   6.644  1.00  0.00     0.278 C 
ENDBRANCH   7  12
ENDBRANCH   5   6
BRANCH   5  14
ATOM     14  C   UNL     1       0.080  -2.842   0.808  1.00  0.00     0.369 C 
ATOM     15  F   UNL     1       0.648  -3.113  -0.424  1.00  0.00    -0.208 F 
ATOM     16  F   UNL     1      -1.162  -3.451   0.876  1.00  0.00    -0.208 F 
ENDBRANCH   5  14
ENDBRANCH   1   5
BRANCH   2  17
ATOM     17  C   UNL     1      -1.401   1.133  -1.693  1.00  0.00     0.053 A 
ATOM     18  C   UNL     1      -1.980   2.412  -1.616  1.00  0.00     0.015 A 
ATOM     19  C   UNL     1      -1.536   0.388  -2.890  1.00  0.00     0.020 A 
ATOM     20  C   UNL     1      -2.708   2.929  -2.690  1.00  0.00     0.001 A 
ATOM     21  C   UNL     1      -2.278   0.915  -3.956  1.00  0.00     0.016 A 
ATOM     22  C   UNL     1      -2.862   2.179  -3.856  1.00  0.00     0.001 A 
BRANCH  19  23
ATOM     23  S   UNL     1      -0.737  -1.209  -3.123  1.00  0.00    -0.115 SA
BRANCH  23  24
ATOM     24  C   UNL     1       0.752  -0.512  -3.911  1.00  0.00     0.175 C 
BRANCH  24  25
ATOM     25  C   UNL     1       1.827  -1.556  -3.916  1.00  0.00     0.232 C 
ATOM     26  O   UNL     1       1.883  -2.367  -4.881  1.00  0.00    -0.274 OA
ATOM     27  N   UNL     1       2.728  -1.708  -2.805  1.00  0.00    -0.342 N 
ATOM     28  C   UNL     1       3.522  -2.904  -2.591  1.00  0.00     0.119 C 
ATOM     29  C   UNL     1       2.888  -0.730  -1.743  1.00  0.00     0.119 C 
ATOM     30  C   UNL     1       4.090  -2.774  -1.185  1.00  0.00     0.023 C 
ATOM     31  C   UNL     1       3.943  -1.302  -0.805  1.00  0.00     0.023 C 
ENDBRANCH  24  25
ENDBRANCH  23  24
ENDBRANCH  19  23
ENDBRANCH   2  17
TORSDOF 8
