REMARK SMILES Cc1c[nH]c2ncc(C(=O)N[C@H]3[C@@H]4CN(C(=O)c5ccc6nc(N)n(C)c6c5)C[C@@H]43)cc12
REMARK SMILES IDX 12 1 13 2 14 3 15 4 29 5 30 6 11 7 9 8 10 9 8 11 2 12 3 13
REMARK SMILES IDX 32 14 4 15 31 16 5 17 6 18 7 19 1 20 16 22 17 23 18 24 19 25
REMARK SMILES IDX 28 26 20 27 27 28 21 29 25 30 22 31 23 32 26 33 24 34
REMARK H PARENT 11 10 4 21 24 35 24 36
ROOT
ATOM      1  C   UNL     1      -1.071  -1.177  -1.281  1.00  0.00     0.093 C 
ATOM      2  C   UNL     1      -1.228  -2.689  -1.379  1.00  0.00     0.038 C 
ATOM      3  C   UNL     1      -1.187  -3.448  -0.061  1.00  0.00     0.126 C 
ATOM      4  N   UNL     1       0.142  -3.235   0.493  1.00  0.00    -0.338 N 
ATOM      5  C   UNL     1       0.992  -2.427  -0.370  1.00  0.00     0.126 C 
ATOM      6  C   UNL     1       0.141  -2.053  -1.574  1.00  0.00     0.038 C 
ENDROOT
BRANCH   1   7
ATOM      7  N   UNL     1      -1.551  -0.461  -2.458  1.00  0.00    -0.349 N 
ATOM      8  C   UNL     1      -0.919   0.751  -2.897  1.00  0.00     0.253 C 
ATOM      9  O   UNL     1       0.167   1.111  -2.366  1.00  0.00    -0.269 OA
ATOM     10  H   UNL     1      -2.379  -0.841  -2.968  1.00  0.00     0.164 HD
BRANCH   8  11
ATOM     11  C   UNL     1      -1.507   1.581  -3.977  1.00  0.00     0.058 A 
ATOM     12  C   UNL     1      -4.625   2.515  -5.832  1.00  0.00    -0.024 A 
ATOM     13  C   UNL     1      -4.478   3.463  -6.843  1.00  0.00     0.088 A 
ATOM     14  C   UNL     1      -3.363   2.332  -5.305  1.00  0.00     0.022 A 
ATOM     15  N   UNL     1      -3.187   3.864  -6.930  1.00  0.00    -0.346 N 
ATOM     16  C   UNL     1      -2.887   1.516  -4.284  1.00  0.00     0.027 A 
ATOM     17  C   UNL     1      -2.529   3.167  -5.989  1.00  0.00     0.137 A 
ATOM     18  N   UNL     1      -1.207   3.256  -5.707  1.00  0.00    -0.238 NA
ATOM     19  C   UNL     1      -0.684   2.481  -4.710  1.00  0.00     0.127 A 
ATOM     20  C   UNL     1      -5.880   1.803  -5.445  1.00  0.00     0.047 C 
ATOM     21  H   UNL     1      -2.789   4.568  -7.590  1.00  0.00     0.167 HD
ENDBRANCH   8  11
ENDBRANCH   1   7
BRANCH   4  22
ATOM     22  C   UNL     1       0.621  -3.957   1.643  1.00  0.00     0.253 C 
ATOM     23  O   UNL     1      -0.026  -4.954   2.065  1.00  0.00    -0.269 OA
BRANCH  22  24
ATOM     24  C   UNL     1       1.867  -3.574   2.334  1.00  0.00     0.042 A 
ATOM     25  C   UNL     1       2.810  -4.572   2.691  1.00  0.00     0.016 A 
ATOM     26  C   UNL     1       2.102  -2.227   2.691  1.00  0.00     0.042 A 
ATOM     27  C   UNL     1       3.995  -4.231   3.367  1.00  0.00     0.031 A 
ATOM     28  C   UNL     1       3.293  -1.925   3.355  1.00  0.00     0.070 A 
ATOM     29  C   UNL     1       4.202  -2.891   3.681  1.00  0.00     0.091 A 
ATOM     30  N   UNL     1       3.744  -0.738   3.798  1.00  0.00    -0.314 N 
ATOM     31  N   UNL     1       5.242  -2.362   4.350  1.00  0.00    -0.213 NA
ATOM     32  C   UNL     1       4.921  -1.044   4.406  1.00  0.00     0.200 A 
ATOM     33  C   UNL     1       3.085   0.566   3.732  1.00  0.00     0.153 C 
BRANCH  32  34
ATOM     34  N   UNL     1       5.742  -0.086   5.076  1.00  0.00    -0.369 N 
ATOM     35  H   UNL     1       5.457   0.915   5.152  1.00  0.00     0.159 HD
ATOM     36  H   UNL     1       6.634  -0.388   5.526  1.00  0.00     0.159 HD
ENDBRANCH  32  34
ENDBRANCH  22  24
ENDBRANCH   4  22
TORSDOF 5
