REMARK SMILES Cc1ccccc1C(=O)Nc1nc(-c2ccccc2OC(F)F)cs1
REMARK SMILES IDX 14 1 15 2 16 3 17 4 18 5 19 6 13 7 11 8 12 9 25 10 24 11
REMARK SMILES IDX 10 12 8 13 9 14 7 16 2 17 3 18 4 19 6 20 5 21 1 22 20 23
REMARK SMILES IDX 21 24 22 25 23 26
REMARK H PARENT 10 15
ROOT
ATOM      1  C   UNL     1      -3.166   0.959  -2.118  1.00  0.00     0.043 A 
ATOM      2  C   UNL     1      -3.834   1.932  -2.887  1.00  0.00     0.014 A 
ATOM      3  C   UNL     1      -5.187   2.201  -2.679  1.00  0.00     0.001 A 
ATOM      4  C   UNL     1      -5.894   1.509  -1.699  1.00  0.00     0.004 A 
ATOM      5  C   UNL     1      -5.252   0.541  -0.925  1.00  0.00     0.047 A 
ATOM      6  C   UNL     1      -3.886   0.252  -1.124  1.00  0.00     0.135 A 
ENDROOT
BRANCH   1   7
ATOM      7  C   UNL     1      -1.720   0.698  -2.351  1.00  0.00     0.087 A 
ATOM      8  C   UNL     1       0.368   0.070  -1.786  1.00  0.00     0.190 A 
ATOM      9  N   UNL     1      -0.903   0.231  -1.365  1.00  0.00    -0.220 NA
ATOM     10  S   UNL     1       0.535   0.479  -3.410  1.00  0.00    -0.105 S 
ATOM     11  C   UNL     1      -1.083   0.902  -3.579  1.00  0.00     0.097 A 
BRANCH   8  12
ATOM     12  N   UNL     1       1.399  -0.461  -0.942  1.00  0.00    -0.298 N 
ATOM     13  C   UNL     1       2.789  -0.504  -1.297  1.00  0.00     0.257 C 
ATOM     14  O   UNL     1       3.245   0.285  -2.169  1.00  0.00    -0.269 OA
ATOM     15  H   UNL     1       1.115  -0.827  -0.006  1.00  0.00     0.172 HD
BRANCH  13  16
ATOM     16  C   UNL     1       3.716  -1.419  -0.595  1.00  0.00     0.043 A 
ATOM     17  C   UNL     1       3.405  -2.784  -0.359  1.00  0.00    -0.038 A 
ATOM     18  C   UNL     1       4.318  -3.584   0.351  1.00  0.00     0.004 A 
ATOM     19  C   UNL     1       5.538  -3.061   0.782  1.00  0.00     0.000 A 
ATOM     20  C   UNL     1       4.960  -0.916  -0.172  1.00  0.00     0.014 A 
ATOM     21  C   UNL     1       5.862  -1.732   0.514  1.00  0.00     0.001 A 
ATOM     22  C   UNL     1       2.123  -3.410  -0.843  1.00  0.00     0.045 C 
ENDBRANCH  13  16
ENDBRANCH   8  12
ENDBRANCH   1   7
BRANCH   6  23
ATOM     23  O   UNL     1      -3.224  -0.732  -0.367  1.00  0.00    -0.434 OA
BRANCH  23  24
ATOM     24  C   UNL     1      -3.822  -1.554   0.633  1.00  0.00     0.542 C 
ATOM     25  F   UNL     1      -4.303  -0.776   1.671  1.00  0.00    -0.167 F 
ATOM     26  F   UNL     1      -4.845  -2.309   0.086  1.00  0.00    -0.167 F 
ENDBRANCH  23  24
ENDBRANCH   6  23
TORSDOF 5
