REMARK SMILES O=C(c1ccc2scnc2c1)N1CCC2(CCC(O)CC2)CC1
REMARK SMILES IDX 1 1 2 2 12 3 13 4 14 5 15 6 16 7 17 8 18 9 20 10 21 11 22 12
REMARK SMILES IDX 23 13 3 14 4 15 11 16 5 17 10 18 6 19 9 20 7 21 8 22 19 23
REMARK H PARENT 19 24
ROOT
ATOM      1  O   UNL     1      -0.015  -2.370  -0.901  1.00  0.00    -0.269 OA
ATOM      2  C   UNL     1       0.750  -1.367  -0.887  1.00  0.00     0.253 C 
ATOM      3  N   UNL     1       0.247  -0.084  -1.307  1.00  0.00    -0.339 N 
ATOM      4  C   UNL     1      -0.832  -0.002  -2.295  1.00  0.00     0.120 C 
ATOM      5  C   UNL     1      -2.134   0.472  -1.629  1.00  0.00     0.028 C 
ATOM      6  C   UNL     1      -1.923   1.546  -0.496  1.00  0.00    -0.026 C 
ATOM      7  C   UNL     1      -2.965   2.692  -0.635  1.00  0.00     0.010 C 
ATOM      8  C   UNL     1      -4.396   2.241  -0.306  1.00  0.00     0.032 C 
ATOM      9  C   UNL     1      -4.488   1.668   1.112  1.00  0.00     0.114 C 
ATOM     10  C   UNL     1      -3.505   0.501   1.283  1.00  0.00     0.032 C 
ATOM     11  C   UNL     1      -2.062   0.900   0.920  1.00  0.00     0.010 C 
ATOM     12  C   UNL     1      -0.507   2.183  -0.624  1.00  0.00     0.028 C 
ATOM     13  C   UNL     1       0.615   1.132  -0.567  1.00  0.00     0.120 C 
ENDROOT
BRANCH   2  14
ATOM     14  C   UNL     1       2.143  -1.534  -0.417  1.00  0.00     0.042 A 
ATOM     15  C   UNL     1       2.436  -2.468   0.606  1.00  0.00     0.015 A 
ATOM     16  C   UNL     1       3.191  -0.791  -1.005  1.00  0.00     0.043 A 
ATOM     17  C   UNL     1       3.753  -2.644   1.058  1.00  0.00     0.022 A 
ATOM     18  C   UNL     1       4.494  -0.978  -0.544  1.00  0.00     0.082 A 
ATOM     19  C   UNL     1       4.756  -1.884   0.467  1.00  0.00     0.054 A 
ATOM     20  N   UNL     1       5.580  -0.322  -1.028  1.00  0.00    -0.245 NA
ATOM     21  S   UNL     1       6.402  -1.883   0.789  1.00  0.00    -0.122 S 
ATOM     22  C   UNL     1       6.713  -0.710  -0.392  1.00  0.00     0.176 A 
ENDBRANCH   2  14
BRANCH   9  23
ATOM     23  O   UNL     1      -4.222   2.678   2.052  1.00  0.00    -0.393 OA
ATOM     24  H   UNL     1      -4.552   2.349   2.928  1.00  0.00     0.210 HD
ENDBRANCH   9  23
TORSDOF 2
