REMARK SMILES O=C(Nc1nnc2ccccn12)c1cccc(Nc2ccccc2)c1
REMARK SMILES IDX 13 1 14 2 15 3 16 4 17 5 25 6 2 7 1 8 3 9 4 11 5 12 12 13
REMARK SMILES IDX 6 14 11 15 7 16 10 17 8 18 9 19 18 20 19 22 20 23 24 24
REMARK SMILES IDX 21 25 23 26 22 27
REMARK H PARENT 3 10 18 21
ROOT
ATOM      1  C   UNL     1      -1.034   1.421   2.153  1.00  0.00     0.042 A 
ATOM      2  C   UNL     1      -1.274   1.949   3.433  1.00  0.00     0.014 A 
ATOM      3  C   UNL     1      -1.386   1.102   4.538  1.00  0.00     0.003 A 
ATOM      4  C   UNL     1      -1.256  -0.279   4.381  1.00  0.00     0.026 A 
ATOM      5  C   UNL     1      -1.007  -0.827   3.116  1.00  0.00     0.039 A 
ATOM      6  C   UNL     1      -0.926   0.026   2.001  1.00  0.00     0.039 A 
ENDROOT
BRANCH   1   7
ATOM      7  C   UNL     1      -0.923   2.324   0.983  1.00  0.00     0.258 C 
ATOM      8  O   UNL     1      -1.457   3.466   1.032  1.00  0.00    -0.269 OA
ATOM      9  N   UNL     1      -0.188   1.925  -0.187  1.00  0.00    -0.290 N 
ATOM     10  H   UNL     1       0.457   1.109  -0.118  1.00  0.00     0.173 HD
BRANCH   9  11
ATOM     11  C   UNL     1      -0.264   2.621  -1.442  1.00  0.00     0.235 A 
ATOM     12  N   UNL     1      -1.084   3.668  -1.690  1.00  0.00    -0.111 NA
ATOM     13  N   UNL     1       0.452   2.303  -2.534  1.00  0.00    -0.269 N 
ATOM     14  N   UNL     1      -0.889   4.030  -2.955  1.00  0.00    -0.128 NA
ATOM     15  C   UNL     1       1.383   1.345  -2.780  1.00  0.00     0.096 A 
ATOM     16  C   UNL     1       0.043   3.193  -3.448  1.00  0.00     0.162 A 
ATOM     17  C   UNL     1       1.945   1.291  -4.066  1.00  0.00     0.019 A 
ATOM     18  C   UNL     1       0.563   3.190  -4.739  1.00  0.00     0.050 A 
ATOM     19  C   UNL     1       1.531   2.218  -5.045  1.00  0.00     0.005 A 
ENDBRANCH   9  11
ENDBRANCH   1   7
BRANCH   5  20
ATOM     20  N   UNL     1      -0.907  -2.255   2.971  1.00  0.00    -0.356 N 
ATOM     21  H   UNL     1      -1.446  -2.852   3.639  1.00  0.00     0.167 HD
BRANCH  20  22
ATOM     22  C   UNL     1      -0.119  -2.916   1.965  1.00  0.00     0.038 A 
ATOM     23  C   UNL     1      -0.526  -4.170   1.483  1.00  0.00     0.026 A 
ATOM     24  C   UNL     1       1.085  -2.359   1.495  1.00  0.00     0.026 A 
ATOM     25  C   UNL     1       0.236  -4.838   0.519  1.00  0.00     0.002 A 
ATOM     26  C   UNL     1       1.843  -3.029   0.531  1.00  0.00     0.002 A 
ATOM     27  C   UNL     1       1.417  -4.266   0.040  1.00  0.00     0.000 A 
ENDBRANCH  20  22
ENDBRANCH   5  20
TORSDOF 4
