REMARK SMILES CN1CCC[C@H](N2CCN(C(=O)Cc3csc(-c4cccs4)n3)CC2)C1
REMARK SMILES IDX 7 1 8 2 9 3 10 4 24 5 25 6 11 7 12 8 6 9 2 10 3 11 26 12
REMARK SMILES IDX 4 13 5 14 1 15 13 16 14 17 15 18 23 19 16 20 17 21 18 22
REMARK SMILES IDX 19 23 22 24 20 25 21 26
REMARK H PARENT
ROOT
ATOM      1  N   UNL     1      -0.831   0.291  -1.560  1.00  0.00    -0.296 NA
ATOM      2  C   UNL     1       0.296   1.261  -1.440  1.00  0.00     0.106 C 
ATOM      3  C   UNL     1       1.521   0.923  -2.317  1.00  0.00     0.135 C 
ATOM      4  N   UNL     1       1.594  -0.521  -2.568  1.00  0.00    -0.340 N 
ATOM      5  C   UNL     1       0.398  -1.191  -3.090  1.00  0.00     0.135 C 
ATOM      6  C   UNL     1      -0.844  -0.310  -2.916  1.00  0.00     0.106 C 
ATOM      7  C   UNL     1       2.821  -1.273  -2.446  1.00  0.00     0.228 C 
ATOM      8  O   UNL     1       2.976  -2.321  -3.130  1.00  0.00    -0.274 OA
ENDROOT
BRANCH   1   9
ATOM      9  C   UNL     1      -2.150   0.907  -1.210  1.00  0.00     0.071 C 
ATOM     10  N   UNL     1      -2.477   0.705   1.305  1.00  0.00    -0.305 NA
ATOM     11  C   UNL     1      -3.822   0.087   1.187  1.00  0.00     0.084 C 
ATOM     12  C   UNL     1      -2.144   1.614   0.189  1.00  0.00     0.103 C 
ATOM     13  C   UNL     1      -4.396   0.119  -0.240  1.00  0.00     0.017 C 
ATOM     14  C   UNL     1      -3.296  -0.146  -1.266  1.00  0.00     0.022 C 
ATOM     15  C   UNL     1      -1.419  -0.287   1.551  1.00  0.00     0.105 C 
ENDBRANCH   1   9
BRANCH   7  16
ATOM     16  C   UNL     1       3.904  -0.888  -1.474  1.00  0.00     0.157 C 
BRANCH  16  17
ATOM     17  C   UNL     1       3.373  -0.891  -0.073  1.00  0.00     0.061 A 
ATOM     18  C   UNL     1       3.109  -2.060   0.637  1.00  0.00     0.091 A 
ATOM     19  N   UNL     1       3.043   0.262   0.570  1.00  0.00    -0.240 NA
ATOM     20  S   UNL     1       2.444  -1.621   2.118  1.00  0.00    -0.121 S 
ATOM     21  C   UNL     1       2.522   0.028   1.794  1.00  0.00     0.133 A 
BRANCH  21  22
ATOM     22  C   UNL     1       2.029   1.091   2.677  1.00  0.00     0.063 A 
ATOM     23  C   UNL     1       1.982   2.445   2.368  1.00  0.00     0.023 A 
ATOM     24  S   UNL     1       1.361   0.867   4.205  1.00  0.00    -0.141 S 
ATOM     25  C   UNL     1       1.416   3.223   3.385  1.00  0.00     0.012 A 
ATOM     26  C   UNL     1       1.014   2.487   4.492  1.00  0.00     0.065 A 
ENDBRANCH  21  22
ENDBRANCH  16  17
ENDBRANCH   7  16
TORSDOF 4
