REMARK SMILES O=C(N[C@@H]1CC[C@@H]2CC[C@@H]21)c1c[nH]nc1-c1cccc(F)c1
REMARK SMILES IDX 11 1 12 2 13 3 14 4 15 5 2 7 1 8 3 9 4 11 5 12 10 13 6 14
REMARK SMILES IDX 9 15 7 16 8 17 16 18 17 19 22 20 18 21 20 22 19 23 21 24
REMARK H PARENT 13 6 3 10
ROOT
ATOM      1  C   UNL     1      -2.190  -0.306  -1.793  1.00  0.00     0.085 A 
ATOM      2  C   UNL     1      -3.396  -0.334  -1.119  1.00  0.00     0.119 A 
ATOM      3  N   UNL     1      -4.382  -0.505  -2.016  1.00  0.00    -0.284 N 
ATOM      4  N   UNL     1      -3.873  -0.591  -3.234  1.00  0.00    -0.175 NA
ATOM      5  C   UNL     1      -2.534  -0.478  -3.131  1.00  0.00     0.105 A 
ATOM      6  H   UNL     1      -5.403  -0.551  -1.802  1.00  0.00     0.189 HD
ENDROOT
BRANCH   1   7
ATOM      7  C   UNL     1      -0.867  -0.010  -1.208  1.00  0.00     0.255 C 
ATOM      8  O   UNL     1       0.027   0.513  -1.927  1.00  0.00    -0.269 OA
ATOM      9  N   UNL     1      -0.603  -0.288   0.176  1.00  0.00    -0.349 N 
ATOM     10  H   UNL     1      -1.387  -0.634   0.771  1.00  0.00     0.164 HD
BRANCH   9  11
ATOM     11  C   UNL     1       0.700  -0.004   0.790  1.00  0.00     0.085 C 
ATOM     12  C   UNL     1       1.823  -0.854   0.200  1.00  0.00     0.025 C 
ATOM     13  C   UNL     1       0.729  -0.284   2.302  1.00  0.00     0.015 C 
ATOM     14  C   UNL     1       2.883  -0.910   1.292  1.00  0.00     0.006 C 
ATOM     15  C   UNL     1       0.155  -1.626   2.778  1.00  0.00     0.006 C 
ATOM     16  C   UNL     1       2.133  -0.783   2.622  1.00  0.00    -0.006 C 
ATOM     17  C   UNL     1       1.554  -2.100   3.141  1.00  0.00     0.004 C 
ENDBRANCH   9  11
ENDBRANCH   1   7
BRANCH   5  18
ATOM     18  C   UNL     1      -1.630  -0.578  -4.296  1.00  0.00     0.006 A 
ATOM     19  C   UNL     1      -0.426  -1.299  -4.218  1.00  0.00     0.010 A 
ATOM     20  C   UNL     1      -2.005   0.000  -5.521  1.00  0.00     0.049 A 
ATOM     21  C   UNL     1       0.406  -1.406  -5.337  1.00  0.00     0.004 A 
ATOM     22  C   UNL     1      -1.170  -0.109  -6.638  1.00  0.00     0.123 A 
ATOM     23  C   UNL     1       0.036  -0.808  -6.545  1.00  0.00     0.039 A 
ATOM     24  F   UNL     1      -1.533   0.463  -7.813  1.00  0.00    -0.207 F 
ENDBRANCH   5  18
TORSDOF 3
