REMARK SMILES Cc1ccc(C)c(S(=O)(=O)Nc2ccc(-c3cnc(C)o3)cc2)c1
REMARK SMILES IDX 11 1 12 3 15 4 14 5 22 6 13 7 23 8 16 9 19 10 18 11 21 12
REMARK SMILES IDX 17 13 20 14 8 15 9 16 10 17 7 18 24 19 5 20 2 21 4 22 3 23
REMARK SMILES IDX 6 24 1 25
REMARK H PARENT 11 2
ROOT
ATOM      1  N   UNL     1       0.235  -1.719   2.713  1.00  0.00    -0.280 N 
ATOM      2  H   UNL     1       0.335  -2.711   3.025  1.00  0.00     0.180 HD
ENDROOT
BRANCH   1   3
ATOM      3  C   UNL     1      -0.539  -1.432   1.535  1.00  0.00     0.049 A 
ATOM      4  C   UNL     1      -2.047  -0.935  -0.801  1.00  0.00     0.019 A 
ATOM      5  C   UNL     1      -1.599   0.129  -0.002  1.00  0.00     0.014 A 
ATOM      6  C   UNL     1      -1.740  -2.251  -0.416  1.00  0.00     0.014 A 
ATOM      7  C   UNL     1      -0.856  -0.116   1.156  1.00  0.00     0.027 A 
ATOM      8  C   UNL     1      -0.996  -2.494   0.742  1.00  0.00     0.027 A 
BRANCH   4   9
ATOM      9  C   UNL     1      -2.831  -0.650  -2.024  1.00  0.00     0.154 A 
ATOM     10  C   UNL     1      -3.836   0.414  -3.544  1.00  0.00     0.191 A 
ATOM     11  N   UNL     1      -4.003  -0.878  -3.897  1.00  0.00    -0.222 NA
ATOM     12  O   UNL     1      -3.148   0.554  -2.434  1.00  0.00    -0.441 OA
ATOM     13  C   UNL     1      -3.358  -1.554  -2.928  1.00  0.00     0.162 A 
ATOM     14  C   UNL     1      -4.405   1.556  -4.313  1.00  0.00     0.111 C 
ENDBRANCH   4   9
ENDBRANCH   1   3
BRANCH   1  15
ATOM     15  S   UNL     1       1.171  -0.531   3.564  1.00  0.00     0.262 S 
ATOM     16  O   UNL     1       0.234   0.405   4.276  1.00  0.00    -0.201 OA
ATOM     17  O   UNL     1       2.032  -1.214   4.590  1.00  0.00    -0.201 OA
BRANCH  15  18
ATOM     18  C   UNL     1       2.215   0.355   2.438  1.00  0.00     0.090 A 
ATOM     19  C   UNL     1       2.173   1.759   2.441  1.00  0.00     0.026 A 
ATOM     20  C   UNL     1       3.081  -0.313   1.536  1.00  0.00    -0.031 A 
ATOM     21  C   UNL     1       2.949   2.503   1.542  1.00  0.00    -0.050 A 
ATOM     22  C   UNL     1       3.858   0.445   0.644  1.00  0.00     0.005 A 
ATOM     23  C   UNL     1       3.800   1.838   0.653  1.00  0.00     0.004 A 
ATOM     24  C   UNL     1       3.161  -1.815   1.469  1.00  0.00     0.046 C 
ATOM     25  C   UNL     1       2.916   4.003   1.579  1.00  0.00     0.044 C 
ENDBRANCH  15  18
ENDBRANCH   1  15
TORSDOF 4
