REMARK SMILES O=C(N[C@H](c1cccnc1)C1CC1)c1cc(-c2ccccc2)[nH]n1
REMARK SMILES IDX 1 1 2 2 3 3 14 5 15 6 24 7 16 8 23 9 17 11 18 12 22 13 19 14
REMARK SMILES IDX 21 15 20 16 4 17 5 18 6 19 10 20 7 21 9 22 8 23 11 24 12 25
REMARK SMILES IDX 13 26
REMARK H PARENT 3 4 23 10
ROOT
ATOM      1  O   UNL     1       1.505   1.302   0.989  1.00  0.00    -0.267 OA
ATOM      2  C   UNL     1       0.557   0.496   0.780  1.00  0.00     0.272 C 
ATOM      3  N   UNL     1       0.771  -0.916   0.937  1.00  0.00    -0.344 N 
ATOM      4  H   UNL     1      -0.032  -1.572   0.811  1.00  0.00     0.164 HD
ENDROOT
BRANCH   2   5
ATOM      5  C   UNL     1      -0.755   1.032   0.377  1.00  0.00     0.150 A 
ATOM      6  C   UNL     1      -1.896   0.308   0.073  1.00  0.00     0.064 A 
ATOM      7  N   UNL     1      -1.006   2.350   0.246  1.00  0.00    -0.170 NA
ATOM      8  C   UNL     1      -2.840   1.271  -0.242  1.00  0.00     0.066 A 
ATOM      9  N   UNL     1      -2.268   2.487  -0.126  1.00  0.00    -0.277 N 
ATOM     10  H   UNL     1      -2.713   3.411  -0.316  1.00  0.00     0.190 HD
BRANCH   8  11
ATOM     11  C   UNL     1      -4.247   1.028  -0.646  1.00  0.00    -0.000 A 
ATOM     12  C   UNL     1      -4.647  -0.232  -1.132  1.00  0.00     0.010 A 
ATOM     13  C   UNL     1      -5.209   2.053  -0.548  1.00  0.00     0.010 A 
ATOM     14  C   UNL     1      -5.973  -0.458  -1.512  1.00  0.00     0.001 A 
ATOM     15  C   UNL     1      -6.534   1.820  -0.929  1.00  0.00     0.001 A 
ATOM     16  C   UNL     1      -6.916   0.567  -1.412  1.00  0.00     0.000 A 
ENDBRANCH   8  11
ENDBRANCH   2   5
BRANCH   3  17
ATOM     17  C   UNL     1       2.088  -1.467   1.276  1.00  0.00     0.117 C 
BRANCH  17  18
ATOM     18  C   UNL     1       3.034  -1.316   0.107  1.00  0.00    -0.007 A 
ATOM     19  C   UNL     1       4.329  -0.810   0.299  1.00  0.00     0.009 A 
ATOM     20  C   UNL     1       2.657  -1.714  -1.188  1.00  0.00     0.116 A 
ATOM     21  C   UNL     1       5.203  -0.693  -0.782  1.00  0.00     0.020 A 
ATOM     22  N   UNL     1       3.527  -1.591  -2.225  1.00  0.00    -0.264 NA
ATOM     23  C   UNL     1       4.779  -1.091  -2.051  1.00  0.00     0.111 A 
ENDBRANCH  17  18
BRANCH  17  24
ATOM     24  C   UNL     1       1.960  -2.960   1.633  1.00  0.00     0.016 C 
ATOM     25  C   UNL     1       1.583  -3.254   3.077  1.00  0.00     0.006 C 
ATOM     26  C   UNL     1       3.006  -3.497   2.599  1.00  0.00     0.006 C 
ENDBRANCH  17  24
ENDBRANCH   3  17
TORSDOF 5
