REMARK SMILES COC(=O)[C@@H]1Cc2ccccc2CN1C(=O)[C@@H]1CC12CCOCC2
REMARK SMILES IDX 5 1 6 2 7 3 8 4 9 5 10 6 11 7 12 8 13 9 14 10 3 11 4 12 2 13
REMARK SMILES IDX 1 14 15 15 16 16 17 17 18 18 19 19 20 20 24 21 21 22 23 23
REMARK SMILES IDX 22 24
REMARK H PARENT
ROOT
ATOM      1  C   UNL     1       0.278  -2.425   0.572  1.00  0.00     0.199 C 
ATOM      2  C   UNL     1       1.185  -1.594   1.516  1.00  0.00     0.073 C 
ATOM      3  C   UNL     1       1.341  -0.182   1.016  1.00  0.00    -0.040 A 
ATOM      4  C   UNL     1       2.572   0.487   1.073  1.00  0.00     0.004 A 
ATOM      5  C   UNL     1       2.669   1.811   0.632  1.00  0.00     0.000 A 
ATOM      6  C   UNL     1       1.537   2.475   0.147  1.00  0.00     0.000 A 
ATOM      7  C   UNL     1       0.304   1.818   0.104  1.00  0.00     0.006 A 
ATOM      8  C   UNL     1       0.204   0.489   0.539  1.00  0.00    -0.025 A 
ATOM      9  C   UNL     1      -1.088  -0.269   0.487  1.00  0.00     0.156 C 
ATOM     10  N   UNL     1      -0.822  -1.627  -0.021  1.00  0.00    -0.324 N 
ENDROOT
BRANCH   1  11
ATOM     11  C   UNL     1      -0.271  -3.613   1.311  1.00  0.00     0.328 C 
ATOM     12  O   UNL     1      -1.293  -3.485   2.041  1.00  0.00    -0.250 OA
BRANCH  11  13
ATOM     13  O   UNL     1       0.387  -4.843   1.216  1.00  0.00    -0.467 OA
ATOM     14  C   UNL     1      -0.062  -6.005   1.901  1.00  0.00     0.282 C 
ENDBRANCH  11  13
ENDBRANCH   1  11
BRANCH  10  15
ATOM     15  C   UNL     1      -1.523  -2.150  -1.174  1.00  0.00     0.227 C 
ATOM     16  O   UNL     1      -1.488  -3.387  -1.421  1.00  0.00    -0.275 OA
BRANCH  15  17
ATOM     17  C   UNL     1      -2.321  -1.251  -2.083  1.00  0.00     0.085 C 
ATOM     18  C   UNL     1      -2.272  -1.586  -3.575  1.00  0.00     0.022 C 
ATOM     19  C   UNL     1      -1.514  -0.368  -3.043  1.00  0.00    -0.013 C 
ATOM     20  C   UNL     1      -2.130   1.002  -3.364  1.00  0.00     0.036 C 
ATOM     21  C   UNL     1       0.026  -0.474  -3.092  1.00  0.00     0.036 C 
ATOM     22  C   UNL     1      -1.403   1.683  -4.548  1.00  0.00     0.160 C 
ATOM     23  C   UNL     1       0.599   0.682  -3.919  1.00  0.00     0.160 C 
ATOM     24  O   UNL     1      -0.260   0.975  -5.004  1.00  0.00    -0.381 OA
ENDBRANCH  15  17
ENDBRANCH  10  15
TORSDOF 4
