REMARK SMILES C[C@@H](C(=O)NC1(Cc2ccccc2)CCC1)n1ccc(C(F)(F)F)n1
REMARK SMILES IDX 3 1 4 2 5 3 2 5 1 6 17 7 18 8 25 9 19 10 20 11 21 12 22 13
REMARK SMILES IDX 23 14 24 15 6 16 14 17 16 18 15 19 7 20 8 21 9 22 13 23
REMARK SMILES IDX 10 24 12 25 11 26
REMARK H PARENT 5 4
ROOT
ATOM      1  C   UNL     1       0.026   0.219  -1.121  1.00  0.00     0.245 C 
ATOM      2  O   UNL     1      -1.076   0.183  -0.508  1.00  0.00    -0.273 OA
ATOM      3  N   UNL     1       0.809   1.425  -1.143  1.00  0.00    -0.348 N 
ATOM      4  H   UNL     1       1.760   1.378  -1.572  1.00  0.00     0.164 HD
ENDROOT
BRANCH   1   5
ATOM      5  C   UNL     1       0.539  -1.026  -1.793  1.00  0.00     0.193 C 
ATOM      6  C   UNL     1      -0.512  -1.613  -2.743  1.00  0.00     0.044 C 
BRANCH   5   7
ATOM      7  N   UNL     1       0.930  -2.007  -0.778  1.00  0.00    -0.260 N 
ATOM      8  C   UNL     1       2.182  -2.211  -0.323  1.00  0.00     0.110 A 
ATOM      9  N   UNL     1       0.077  -2.763  -0.103  1.00  0.00    -0.168 NA
ATOM     10  C   UNL     1       2.136  -3.161   0.676  1.00  0.00     0.055 A 
ATOM     11  C   UNL     1       0.793  -3.473   0.791  1.00  0.00     0.166 A 
BRANCH  11  12
ATOM     12  C   UNL     1       0.198  -4.478   1.725  1.00  0.00     0.435 C 
ATOM     13  F   UNL     1      -1.112  -4.135   2.010  1.00  0.00    -0.164 F 
ATOM     14  F   UNL     1       0.918  -4.515   2.905  1.00  0.00    -0.164 F 
ATOM     15  F   UNL     1       0.224  -5.728   1.132  1.00  0.00    -0.164 F 
ENDBRANCH  11  12
ENDBRANCH   5   7
ENDBRANCH   1   5
BRANCH   3  16
ATOM     16  C   UNL     1       0.412   2.689  -0.497  1.00  0.00     0.044 C 
ATOM     17  C   UNL     1       0.954   3.901  -1.272  1.00  0.00     0.029 C 
ATOM     18  C   UNL     1      -1.018   3.141  -0.839  1.00  0.00     0.029 C 
ATOM     19  C   UNL     1      -0.467   4.343  -1.591  1.00  0.00     0.005 C 
BRANCH  16  20
ATOM     20  C   UNL     1       0.794   2.751   1.004  1.00  0.00     0.063 C 
BRANCH  20  21
ATOM     21  C   UNL     1       0.257   1.596   1.811  1.00  0.00    -0.046 A 
ATOM     22  C   UNL     1      -1.039   1.644   2.354  1.00  0.00     0.004 A 
ATOM     23  C   UNL     1       1.049   0.454   2.026  1.00  0.00     0.004 A 
ATOM     24  C   UNL     1      -1.536   0.563   3.090  1.00  0.00     0.000 A 
ATOM     25  C   UNL     1       0.552  -0.619   2.775  1.00  0.00     0.000 A 
ATOM     26  C   UNL     1      -0.741  -0.568   3.299  1.00  0.00     0.000 A 
ENDBRANCH  20  21
ENDBRANCH  16  20
ENDBRANCH   3  16
TORSDOF 6
