REMARK SMILES Cc1cccc(N(C)C(=O)c2cc(C)n(C(C)(C)C)n2)c1C
REMARK SMILES IDX 9 1 10 2 11 3 13 4 12 5 15 6 20 7 14 8 16 9 17 10 18 11
REMARK SMILES IDX 19 12 7 13 8 14 6 15 5 16 21 17 4 18 2 19 3 20 22 21 1 22
REMARK H PARENT
ROOT
ATOM      1  C   UNL     1       0.251  -1.704  -0.220  1.00  0.00     0.278 C 
ATOM      2  O   UNL     1       0.041  -2.943  -0.113  1.00  0.00    -0.267 OA
ENDROOT
BRANCH   1   3
ATOM      3  C   UNL     1      -0.836  -0.847  -0.737  1.00  0.00     0.151 A 
ATOM      4  C   UNL     1      -2.712  -0.139  -1.599  1.00  0.00     0.037 A 
ATOM      5  C   UNL     1      -2.012  -1.291  -1.301  1.00  0.00     0.059 A 
ATOM      6  N   UNL     1      -1.986   0.940  -1.191  1.00  0.00    -0.264 N 
ATOM      7  N   UNL     1      -0.844   0.497  -0.682  1.00  0.00    -0.167 NA
ATOM      8  C   UNL     1      -4.080  -0.137  -2.214  1.00  0.00     0.066 C 
BRANCH   6   9
ATOM      9  C   UNL     1      -2.275   2.389  -1.344  1.00  0.00     0.055 C 
ATOM     10  C   UNL     1      -3.722   2.724  -0.920  1.00  0.00     0.036 C 
ATOM     11  C   UNL     1      -2.035   2.810  -2.805  1.00  0.00     0.036 C 
ATOM     12  C   UNL     1      -1.323   3.211  -0.441  1.00  0.00     0.036 C 
ENDBRANCH   6   9
ENDBRANCH   1   3
BRANCH   1  13
ATOM     13  N   UNL     1       1.526  -1.164   0.188  1.00  0.00    -0.310 N 
ATOM     14  C   UNL     1       2.041   0.102  -0.337  1.00  0.00     0.153 C 
BRANCH  13  15
ATOM     15  C   UNL     1       2.318  -1.882   1.146  1.00  0.00     0.047 A 
ATOM     16  C   UNL     1       3.142  -2.922   0.697  1.00  0.00     0.026 A 
ATOM     17  C   UNL     1       2.287  -1.544   2.520  1.00  0.00    -0.024 A 
ATOM     18  C   UNL     1       3.946  -3.621   1.593  1.00  0.00     0.002 A 
ATOM     19  C   UNL     1       3.142  -2.233   3.420  1.00  0.00    -0.046 A 
ATOM     20  C   UNL     1       3.949  -3.280   2.944  1.00  0.00     0.004 A 
ATOM     21  C   UNL     1       1.401  -0.420   3.006  1.00  0.00     0.047 C 
ATOM     22  C   UNL     1       3.185  -1.892   4.887  1.00  0.00     0.044 C 
ENDBRANCH  13  15
ENDBRANCH   1  13
TORSDOF 4
