REMARK SMILES O=C(c1ccc2c(c1)[nH]c(=O)n2C1CCCC1)N1CC[C@H](Oc2cccc(F)c2)C1
REMARK SMILES IDX 18 1 19 2 20 3 21 4 30 5 2 6 1 7 3 8 4 9 8 10 5 11 7 12 6 13
REMARK SMILES IDX 9 14 12 15 10 16 11 17 13 19 14 20 17 21 15 22 16 23 22 24
REMARK SMILES IDX 23 25 24 26 29 27 25 28 27 29 26 30 28 31
REMARK H PARENT 9 18
ROOT
ATOM      1  N   UNL     1       1.823   0.508  -2.065  1.00  0.00    -0.335 N 
ATOM      2  C   UNL     1       2.021  -0.546  -1.085  1.00  0.00     0.124 C 
ATOM      3  C   UNL     1       3.411  -1.104  -1.354  1.00  0.00     0.068 C 
ATOM      4  C   UNL     1       4.133  -0.054  -2.206  1.00  0.00     0.194 C 
ATOM      5  C   UNL     1       3.029   0.805  -2.820  1.00  0.00     0.165 C 
ENDROOT
BRANCH   1   6
ATOM      6  C   UNL     1       0.653   1.347  -2.112  1.00  0.00     0.254 C 
ATOM      7  O   UNL     1       0.758   2.537  -2.515  1.00  0.00    -0.269 OA
BRANCH   6   8
ATOM      8  C   UNL     1      -0.672   0.850  -1.690  1.00  0.00     0.042 A 
ATOM      9  C   UNL     1      -1.123  -0.433  -2.094  1.00  0.00     0.016 A 
ATOM     10  C   UNL     1      -1.527   1.684  -0.937  1.00  0.00     0.042 A 
ATOM     11  C   UNL     1      -2.393  -0.903  -1.714  1.00  0.00     0.029 A 
ATOM     12  C   UNL     1      -2.775   1.184  -0.574  1.00  0.00     0.067 A 
ATOM     13  C   UNL     1      -3.193  -0.070  -0.927  1.00  0.00     0.069 A 
ATOM     14  N   UNL     1      -3.752   1.818   0.088  1.00  0.00    -0.306 N 
ATOM     15  N   UNL     1      -4.451  -0.276  -0.469  1.00  0.00    -0.289 N 
ATOM     16  C   UNL     1      -4.762   0.920   0.119  1.00  0.00     0.326 A 
ATOM     17  O   UNL     1      -5.887   1.197   0.613  1.00  0.00    -0.248 OA
ATOM     18  H   UNL     1      -3.750   2.797   0.454  1.00  0.00     0.171 HD
BRANCH  15  19
ATOM     19  C   UNL     1      -5.277  -1.486  -0.690  1.00  0.00     0.092 C 
ATOM     20  C   UNL     1      -4.644  -2.738  -0.072  1.00  0.00     0.025 C 
ATOM     21  C   UNL     1      -6.672  -1.436  -0.068  1.00  0.00     0.025 C 
ATOM     22  C   UNL     1      -5.801  -3.644   0.358  1.00  0.00     0.002 C 
ATOM     23  C   UNL     1      -7.085  -2.890   0.037  1.00  0.00     0.002 C 
ENDBRANCH  15  19
ENDBRANCH   6   8
ENDBRANCH   1   6
BRANCH   4  24
ATOM     24  O   UNL     1       4.972   0.766  -1.389  1.00  0.00    -0.488 OA
BRANCH  24  25
ATOM     25  C   UNL     1       6.198   0.370  -0.828  1.00  0.00     0.122 A 
ATOM     26  C   UNL     1       6.879   1.284  -0.013  1.00  0.00     0.046 A 
ATOM     27  C   UNL     1       6.761  -0.903  -1.053  1.00  0.00     0.085 A 
ATOM     28  C   UNL     1       8.101   0.939   0.573  1.00  0.00     0.007 A 
ATOM     29  C   UNL     1       7.984  -1.244  -0.466  1.00  0.00     0.126 A 
ATOM     30  C   UNL     1       8.653  -0.325   0.348  1.00  0.00     0.039 A 
ATOM     31  F   UNL     1       8.521  -2.470  -0.684  1.00  0.00    -0.207 F 
ENDBRANCH  24  25
ENDBRANCH   4  24
TORSDOF 5
