REMARK SMILES CC1(CC(=O)NCc2ccc(-n3cncn3)cc2)OCCO1
REMARK SMILES IDX 4 1 5 2 6 3 3 5 2 6 19 7 22 8 20 9 21 10 1 11 7 12 8 13 9 14
REMARK SMILES IDX 18 15 10 16 17 17 11 18 12 19 13 20 16 21 14 22 15 23
REMARK H PARENT 6 4
ROOT
ATOM      1  C   UNL     1       1.131  -1.989  -3.108  1.00  0.00     0.225 C 
ATOM      2  O   UNL     1       1.513  -0.854  -3.501  1.00  0.00    -0.275 OA
ATOM      3  N   UNL     1       1.782  -2.628  -2.000  1.00  0.00    -0.352 N 
ATOM      4  H   UNL     1       1.508  -3.603  -1.742  1.00  0.00     0.163 HD
ENDROOT
BRANCH   1   5
ATOM      5  C   UNL     1      -0.037  -2.651  -3.783  1.00  0.00     0.165 C 
BRANCH   5   6
ATOM      6  C   UNL     1      -1.394  -2.159  -3.234  1.00  0.00     0.174 C 
ATOM      7  O   UNL     1      -1.468  -0.753  -3.360  1.00  0.00    -0.347 OA
ATOM      8  O   UNL     1      -2.423  -2.789  -3.968  1.00  0.00    -0.347 OA
ATOM      9  C   UNL     1      -2.638  -0.490  -4.067  1.00  0.00     0.192 C 
ATOM     10  C   UNL     1      -3.042  -1.783  -4.704  1.00  0.00     0.192 C 
ATOM     11  C   UNL     1      -1.562  -2.534  -1.755  1.00  0.00     0.076 C 
ENDBRANCH   5   6
ENDBRANCH   1   5
BRANCH   3  12
ATOM     12  C   UNL     1       2.740  -1.929  -1.148  1.00  0.00     0.151 C 
BRANCH  12  13
ATOM     13  C   UNL     1       2.015  -0.971  -0.242  1.00  0.00    -0.029 A 
ATOM     14  C   UNL     1       1.300  -1.456   0.862  1.00  0.00     0.008 A 
ATOM     15  C   UNL     1       1.994   0.402  -0.525  1.00  0.00     0.008 A 
ATOM     16  C   UNL     1       0.579  -0.580   1.678  1.00  0.00     0.029 A 
ATOM     17  C   UNL     1       1.275   1.279   0.291  1.00  0.00     0.029 A 
ATOM     18  C   UNL     1       0.555   0.801   1.401  1.00  0.00     0.066 A 
BRANCH  18  19
ATOM     19  N   UNL     1      -0.187   1.721   2.230  1.00  0.00    -0.221 N 
ATOM     20  C   UNL     1      -1.038   1.438   3.236  1.00  0.00     0.225 A 
ATOM     21  N   UNL     1      -0.138   3.036   2.103  1.00  0.00    -0.155 NA
ATOM     22  N   UNL     1      -1.550   2.560   3.776  1.00  0.00    -0.223 NA
ATOM     23  C   UNL     1      -0.964   3.530   3.044  1.00  0.00     0.246 A 
ENDBRANCH  18  19
ENDBRANCH  12  13
ENDBRANCH   3  12
TORSDOF 5
