REMARK SMILES O=C(Nc1cccc(CCO)c1)c1c[nH]c2ncnc(O)c12
REMARK SMILES IDX 4 1 5 2 6 3 7 4 8 5 12 6 3 7 1 8 2 9 13 11 14 12 22 13 15 14
REMARK SMILES IDX 20 15 16 16 19 17 17 18 18 19 21 21 9 23 10 24 11 25
REMARK H PARENT 3 10 15 20 21 22 11 26
ROOT
ATOM      1  C   UNL     1       1.095  -0.797  -1.347  1.00  0.00     0.041 A 
ATOM      2  C   UNL     1       2.164  -0.536  -2.221  1.00  0.00     0.026 A 
ATOM      3  C   UNL     1       3.397  -1.166  -2.034  1.00  0.00     0.002 A 
ATOM      4  C   UNL     1       3.579  -2.051  -0.969  1.00  0.00     0.004 A 
ATOM      5  C   UNL     1       2.526  -2.312  -0.079  1.00  0.00    -0.044 A 
ATOM      6  C   UNL     1       1.292  -1.668  -0.264  1.00  0.00     0.030 A 
ENDROOT
BRANCH   1   7
ATOM      7  N   UNL     1      -0.174  -0.140  -1.495  1.00  0.00    -0.322 N 
ATOM      8  O   UNL     1      -0.259  -0.229  -3.838  1.00  0.00    -0.269 OA
ATOM      9  C   UNL     1      -0.832   0.070  -2.756  1.00  0.00     0.258 C 
ATOM     10  H   UNL     1      -0.679   0.135  -0.623  1.00  0.00     0.170 HD
BRANCH   9  11
ATOM     11  C   UNL     1      -2.176   0.663  -2.805  1.00  0.00     0.072 A 
ATOM     12  C   UNL     1      -2.592   1.657  -3.689  1.00  0.00     0.099 A 
ATOM     13  C   UNL     1      -3.279   0.385  -2.012  1.00  0.00     0.093 A 
ATOM     14  N   UNL     1      -3.878   2.001  -3.447  1.00  0.00    -0.345 N 
ATOM     15  C   UNL     1      -3.547  -0.559  -1.021  1.00  0.00     0.224 A 
ATOM     16  C   UNL     1      -4.275   1.221  -2.430  1.00  0.00     0.145 A 
ATOM     17  N   UNL     1      -4.794  -0.565  -0.465  1.00  0.00    -0.201 NA
ATOM     18  N   UNL     1      -5.513   1.201  -1.880  1.00  0.00    -0.218 NA
ATOM     19  C   UNL     1      -5.766   0.307  -0.879  1.00  0.00     0.228 A 
ATOM     20  H   UNL     1      -4.445   2.715  -3.955  1.00  0.00     0.167 HD
BRANCH  15  21
ATOM     21  O   UNL     1      -2.595  -1.491  -0.622  1.00  0.00    -0.493 OA
ATOM     22  H   UNL     1      -2.806  -2.176   0.094  1.00  0.00     0.295 HD
ENDBRANCH  15  21
ENDBRANCH   9  11
ENDBRANCH   1   7
BRANCH   5  23
ATOM     23  C   UNL     1       2.736  -3.234   1.094  1.00  0.00     0.063 C 
BRANCH  23  24
ATOM     24  C   UNL     1       3.337  -2.488   2.286  1.00  0.00     0.161 C 
BRANCH  24  25
ATOM     25  O   UNL     1       2.436  -1.521   2.752  1.00  0.00    -0.396 OA
ATOM     26  H   UNL     1       2.886  -1.071   3.513  1.00  0.00     0.210 HD
ENDBRANCH  24  25
ENDBRANCH  23  24
ENDBRANCH   5  23
TORSDOF 6
