REMARK SMILES O=C(NC[C@@H]1NCC[C@@H]1C1CC1)c1ccc(N2CCCS2(=O)=O)cc1Cl
REMARK SMILES IDX 1 1 2 2 3 3 13 5 14 6 25 7 15 8 24 9 16 10 26 11 17 12 18 13
REMARK SMILES IDX 21 14 19 15 20 16 22 17 23 18 4 19 5 20 6 21 9 22 7 23 8 24
REMARK SMILES IDX 10 26 11 27 12 28
REMARK H PARENT 3 4 6 25
ROOT
ATOM      1  O   UNL     1       1.608  -0.662   1.681  1.00  0.00    -0.269 OA
ATOM      2  C   UNL     1       0.580  -0.646   0.950  1.00  0.00     0.252 C 
ATOM      3  N   UNL     1      -0.655  -0.120   1.463  1.00  0.00    -0.350 N 
ATOM      4  H   UNL     1      -1.469  -0.008   0.817  1.00  0.00     0.163 HD
ENDROOT
BRANCH   2   5
ATOM      5  C   UNL     1       0.650  -1.183  -0.429  1.00  0.00     0.058 A 
ATOM      6  C   UNL     1      -0.428  -1.929  -0.930  1.00  0.00     0.017 A 
ATOM      7  C   UNL     1       1.779  -0.978  -1.252  1.00  0.00     0.055 A 
ATOM      8  C   UNL     1      -0.389  -2.465  -2.218  1.00  0.00     0.028 A 
ATOM      9  C   UNL     1       1.812  -1.519  -2.543  1.00  0.00     0.048 A 
ATOM     10  C   UNL     1       0.732  -2.267  -3.045  1.00  0.00     0.053 A 
ATOM     11  Cl  UNL     1       3.151  -0.002  -0.733  1.00  0.00    -0.083 Cl
BRANCH  10  12
ATOM     12  N   UNL     1       0.772  -2.828  -4.378  1.00  0.00    -0.270 N 
ATOM     13  C   UNL     1      -0.245  -3.722  -4.928  1.00  0.00     0.136 C 
ATOM     14  S   UNL     1       1.921  -2.391  -5.578  1.00  0.00     0.235 S 
ATOM     15  C   UNL     1       0.230  -4.237  -6.304  1.00  0.00     0.041 C 
ATOM     16  C   UNL     1       1.187  -3.225  -6.942  1.00  0.00     0.162 C 
ATOM     17  O   UNL     1       3.283  -2.943  -5.260  1.00  0.00    -0.206 OA
ATOM     18  O   UNL     1       1.962  -0.904  -5.795  1.00  0.00    -0.206 OA
ENDBRANCH  10  12
ENDBRANCH   2   5
BRANCH   3  19
ATOM     19  C   UNL     1      -0.776   0.440   2.808  1.00  0.00     0.135 C 
BRANCH  19  20
ATOM     20  C   UNL     1      -0.525   1.959   2.782  1.00  0.00     0.076 C 
ATOM     21  N   UNL     1       0.876   2.249   2.476  1.00  0.00    -0.312 NA
ATOM     22  C   UNL     1      -0.863   2.713   4.081  1.00  0.00     0.012 C 
ATOM     23  C   UNL     1       1.181   3.546   3.086  1.00  0.00     0.081 C 
ATOM     24  C   UNL     1      -0.025   3.980   3.911  1.00  0.00     0.021 C 
ATOM     25  H   UNL     1       0.989   2.324   1.437  1.00  0.00     0.123 HD
BRANCH  22  26
ATOM     26  C   UNL     1      -0.606   1.863   5.367  1.00  0.00    -0.006 C 
ATOM     27  C   UNL     1      -0.731   2.618   6.685  1.00  0.00     0.004 C 
ATOM     28  C   UNL     1       0.625   2.087   6.240  1.00  0.00     0.004 C 
ENDBRANCH  22  26
ENDBRANCH  19  20
ENDBRANCH   3  19
TORSDOF 5
