REMARK SMILES CCc1noc(-c2ccc(C)c(NCc3ccc(C(=O)N4CCCC4)cc3)c2)n1
REMARK SMILES IDX 7 1 8 2 9 3 10 4 11 5 12 6 28 7 6 8 3 9 4 10 29 11 5 12 2 13
REMARK SMILES IDX 1 14 13 15 14 17 15 18 16 19 27 20 17 21 26 22 18 23 19 24
REMARK SMILES IDX 20 25 21 26 22 27 25 28 23 29 24 30
REMARK H PARENT 13 16
ROOT
ATOM      1  C   UNL     1      -1.078  -0.564  -3.498  1.00  0.00     0.042 A 
ATOM      2  C   UNL     1      -0.205   0.342  -4.113  1.00  0.00     0.014 A 
ATOM      3  C   UNL     1       1.118  -0.017  -4.370  1.00  0.00     0.006 A 
ATOM      4  C   UNL     1       1.599  -1.286  -4.011  1.00  0.00    -0.028 A 
ATOM      5  C   UNL     1       3.041  -1.625  -4.279  1.00  0.00     0.046 C 
ATOM      6  C   UNL     1       0.727  -2.214  -3.393  1.00  0.00     0.038 A 
ATOM      7  C   UNL     1      -0.610  -1.840  -3.151  1.00  0.00     0.039 A 
ENDROOT
BRANCH   1   8
ATOM      8  C   UNL     1      -2.477  -0.185  -3.214  1.00  0.00     0.257 A 
ATOM      9  C   UNL     1      -4.277   0.858  -3.064  1.00  0.00     0.172 A 
ATOM     10  N   UNL     1      -4.486  -0.353  -2.512  1.00  0.00    -0.062 NA
ATOM     11  N   UNL     1      -3.015   1.014  -3.514  1.00  0.00    -0.192 NA
ATOM     12  O   UNL     1      -3.350  -0.970  -2.630  1.00  0.00    -0.334 OA
BRANCH   9  13
ATOM     13  C   UNL     1      -5.309   1.939  -3.104  1.00  0.00     0.078 C 
ATOM     14  C   UNL     1      -5.204   2.826  -1.869  1.00  0.00     0.012 C 
ENDBRANCH   9  13
ENDBRANCH   1   8
BRANCH   6  15
ATOM     15  N   UNL     1       1.199  -3.525  -3.012  1.00  0.00    -0.381 N 
ATOM     16  H   UNL     1       2.051  -3.918  -3.470  1.00  0.00     0.160 HD
BRANCH  15  17
ATOM     17  C   UNL     1       0.617  -4.316  -1.925  1.00  0.00     0.148 C 
BRANCH  17  18
ATOM     18  C   UNL     1       0.667  -3.551  -0.628  1.00  0.00    -0.029 A 
ATOM     19  C   UNL     1       1.900  -3.124  -0.112  1.00  0.00     0.006 A 
ATOM     20  C   UNL     1      -0.512  -3.248   0.070  1.00  0.00     0.006 A 
ATOM     21  C   UNL     1       1.951  -2.382   1.071  1.00  0.00     0.014 A 
ATOM     22  C   UNL     1      -0.461  -2.507   1.254  1.00  0.00     0.014 A 
ATOM     23  C   UNL     1       0.769  -2.050   1.752  1.00  0.00     0.040 A 
BRANCH  23  24
ATOM     24  C   UNL     1       0.813  -1.262   3.000  1.00  0.00     0.253 C 
ATOM     25  O   UNL     1       0.104  -1.629   3.977  1.00  0.00    -0.269 OA
ATOM     26  N   UNL     1       1.624  -0.079   3.117  1.00  0.00    -0.339 N 
ATOM     27  C   UNL     1       2.053   0.727   1.985  1.00  0.00     0.120 C 
ATOM     28  C   UNL     1       1.869   0.576   4.391  1.00  0.00     0.120 C 
ATOM     29  C   UNL     1       2.468   2.070   2.572  1.00  0.00     0.023 C 
ATOM     30  C   UNL     1       2.684   1.819   4.061  1.00  0.00     0.023 C 
ENDBRANCH  23  24
ENDBRANCH  17  18
ENDBRANCH  15  17
ENDBRANCH   6  15
TORSDOF 6
