REMARK SMILES O=C(Nc1ccc(-n2cccn2)nc1)[C@H]1C[C@H]1C1CCCC1
REMARK SMILES IDX 1 1 2 2 3 3 15 5 16 6 17 7 18 8 19 9 22 10 20 11 21 12 4 13
REMARK SMILES IDX 5 14 14 15 6 16 13 17 7 18 8 19 9 20 12 21 10 22 11 23
REMARK H PARENT 3 4
ROOT
ATOM      1  O   UNL     1       2.143   0.200   2.207  1.00  0.00    -0.274 OA
ATOM      2  C   UNL     1       1.095   0.900   2.245  1.00  0.00     0.227 C 
ATOM      3  N   UNL     1      -0.145   0.395   1.729  1.00  0.00    -0.324 N 
ATOM      4  H   UNL     1      -0.950   1.060   1.672  1.00  0.00     0.169 HD
ENDROOT
BRANCH   2   5
ATOM      5  C   UNL     1       1.134   2.280   2.842  1.00  0.00     0.082 C 
ATOM      6  C   UNL     1       2.455   3.035   2.717  1.00  0.00     0.018 C 
ATOM      7  C   UNL     1       1.260   3.457   1.869  1.00  0.00     0.005 C 
BRANCH   7   8
ATOM      8  C   UNL     1       1.443   3.191   0.356  1.00  0.00    -0.007 C 
ATOM      9  C   UNL     1       2.236   4.308  -0.309  1.00  0.00     0.004 C 
ATOM     10  C   UNL     1       0.109   3.165  -0.387  1.00  0.00     0.004 C 
ATOM     11  C   UNL     1       1.803   4.286  -1.764  1.00  0.00     0.000 C 
ATOM     12  C   UNL     1       0.376   3.747  -1.774  1.00  0.00     0.000 C 
ENDBRANCH   7   8
ENDBRANCH   2   5
BRANCH   3  13
ATOM     13  C   UNL     1      -0.304  -0.903   1.132  1.00  0.00     0.059 A 
ATOM     14  C   UNL     1       0.336  -2.039   1.650  1.00  0.00     0.031 A 
ATOM     15  C   UNL     1      -1.165  -1.060   0.038  1.00  0.00     0.139 A 
ATOM     16  C   UNL     1       0.139  -3.286   1.053  1.00  0.00     0.051 A 
ATOM     17  N   UNL     1      -1.340  -2.283  -0.528  1.00  0.00    -0.235 NA
ATOM     18  C   UNL     1      -0.711  -3.396  -0.057  1.00  0.00     0.153 A 
BRANCH  18  19
ATOM     19  N   UNL     1      -0.930  -4.665  -0.695  1.00  0.00    -0.223 N 
ATOM     20  C   UNL     1      -1.710  -4.887  -1.771  1.00  0.00     0.117 A 
ATOM     21  N   UNL     1      -0.382  -5.805  -0.300  1.00  0.00    -0.175 NA
ATOM     22  C   UNL     1      -1.657  -6.229  -2.078  1.00  0.00     0.042 A 
ATOM     23  C   UNL     1      -0.813  -6.773  -1.131  1.00  0.00     0.135 A 
ENDBRANCH  18  19
ENDBRANCH   3  13
TORSDOF 4
