REMARK SMILES O=C(Nc1nnc2ccccn12)c1cccc(Nc2ccccc2)c1
REMARK SMILES IDX 13 1 14 2 15 3 16 4 17 5 25 6 2 7 1 8 3 9 4 11 5 12 12 13
REMARK SMILES IDX 6 14 11 15 7 16 10 17 8 18 9 19 18 20 19 22 20 23 24 24
REMARK SMILES IDX 21 25 23 26 22 27
REMARK H PARENT 3 10 18 21
ROOT
ATOM      1  C   UNL     1      -0.744   1.860  -0.496  1.00  0.00     0.042 A 
ATOM      2  C   UNL     1      -1.228   3.117  -0.899  1.00  0.00     0.014 A 
ATOM      3  C   UNL     1      -0.370   4.051  -1.484  1.00  0.00     0.003 A 
ATOM      4  C   UNL     1       0.977   3.743  -1.677  1.00  0.00     0.026 A 
ATOM      5  C   UNL     1       1.480   2.492  -1.295  1.00  0.00     0.039 A 
ATOM      6  C   UNL     1       0.619   1.563  -0.682  1.00  0.00     0.039 A 
ENDROOT
BRANCH   1   7
ATOM      7  C   UNL     1      -1.655   0.877   0.138  1.00  0.00     0.258 C 
ATOM      8  O   UNL     1      -2.761   1.264   0.605  1.00  0.00    -0.269 OA
ATOM      9  N   UNL     1      -1.312  -0.516   0.189  1.00  0.00    -0.290 N 
ATOM     10  H   UNL     1      -0.712  -0.910  -0.569  1.00  0.00     0.173 HD
BRANCH   9  11
ATOM     11  C   UNL     1      -1.965  -1.444   1.064  1.00  0.00     0.235 A 
ATOM     12  N   UNL     1      -2.326  -2.690   0.688  1.00  0.00    -0.111 NA
ATOM     13  N   UNL     1      -2.251  -1.227   2.361  1.00  0.00    -0.269 N 
ATOM     14  N   UNL     1      -2.871  -3.279   1.750  1.00  0.00    -0.128 NA
ATOM     15  C   UNL     1      -2.003  -0.192   3.206  1.00  0.00     0.096 A 
ATOM     16  C   UNL     1      -2.817  -2.379   2.750  1.00  0.00     0.162 A 
ATOM     17  C   UNL     1      -2.409  -0.321   4.543  1.00  0.00     0.019 A 
ATOM     18  C   UNL     1      -3.238  -2.568   4.063  1.00  0.00     0.050 A 
ATOM     19  C   UNL     1      -3.033  -1.512   4.967  1.00  0.00     0.005 A 
ENDBRANCH   9  11
ENDBRANCH   1   7
BRANCH   5  20
ATOM     20  N   UNL     1       2.878   2.208  -1.474  1.00  0.00    -0.356 N 
ATOM     21  H   UNL     1       3.548   3.010  -1.429  1.00  0.00     0.167 HD
BRANCH  20  22
ATOM     22  C   UNL     1       3.417   0.896  -1.711  1.00  0.00     0.038 A 
ATOM     23  C   UNL     1       2.692  -0.074  -2.428  1.00  0.00     0.026 A 
ATOM     24  C   UNL     1       4.716   0.594  -1.273  1.00  0.00     0.026 A 
ATOM     25  C   UNL     1       3.248  -1.336  -2.666  1.00  0.00     0.002 A 
ATOM     26  C   UNL     1       5.268  -0.668  -1.513  1.00  0.00     0.002 A 
ATOM     27  C   UNL     1       4.533  -1.633  -2.206  1.00  0.00     0.000 A 
ENDBRANCH  20  22
ENDBRANCH   5  20
TORSDOF 4
