REMARK SMILES O=C(c1ccc(-n2cnc3ccccc32)cc1)N1CCC[C@](O)(CO)C1
REMARK SMILES IDX 18 1 19 2 20 3 21 4 22 5 26 6 2 7 1 8 3 9 4 10 17 11 5 12
REMARK SMILES IDX 16 13 6 14 7 15 8 16 15 17 9 18 14 19 10 20 13 21 11 22
REMARK SMILES IDX 12 23 23 24 24 26 25 27
REMARK H PARENT 23 25 25 28
ROOT
ATOM      1  N   UNL     1       0.762  -1.257   2.467  1.00  0.00    -0.336 N 
ATOM      2  C   UNL     1       0.514  -2.563   1.843  1.00  0.00     0.120 C 
ATOM      3  C   UNL     1      -0.966  -2.970   1.956  1.00  0.00     0.025 C 
ATOM      4  C   UNL     1      -1.676  -2.397   3.200  1.00  0.00     0.041 C 
ATOM      5  C   UNL     1      -0.695  -2.063   4.346  1.00  0.00     0.105 C 
ATOM      6  C   UNL     1       0.309  -0.990   3.841  1.00  0.00     0.157 C 
ENDROOT
BRANCH   1   7
ATOM      7  C   UNL     1       1.641  -0.310   1.835  1.00  0.00     0.253 C 
ATOM      8  O   UNL     1       2.566   0.220   2.510  1.00  0.00    -0.269 OA
BRANCH   7   9
ATOM      9  C   UNL     1       1.466   0.075   0.415  1.00  0.00     0.040 A 
ATOM     10  C   UNL     1       0.203   0.002  -0.195  1.00  0.00     0.016 A 
ATOM     11  C   UNL     1       2.558   0.545  -0.332  1.00  0.00     0.016 A 
ATOM     12  C   UNL     1       0.039   0.376  -1.532  1.00  0.00     0.027 A 
ATOM     13  C   UNL     1       2.394   0.918  -1.669  1.00  0.00     0.027 A 
ATOM     14  C   UNL     1       1.131   0.847  -2.276  1.00  0.00     0.047 A 
BRANCH  14  15
ATOM     15  N   UNL     1       0.973   1.218  -3.656  1.00  0.00    -0.299 N 
ATOM     16  C   UNL     1       1.794   0.882  -4.683  1.00  0.00     0.205 A 
ATOM     17  C   UNL     1       0.006   1.956  -4.231  1.00  0.00     0.073 A 
ATOM     18  N   UNL     1       1.382   1.366  -5.883  1.00  0.00    -0.236 NA
ATOM     19  C   UNL     1      -1.071   2.626  -3.643  1.00  0.00     0.029 A 
ATOM     20  C   UNL     1       0.258   2.037  -5.571  1.00  0.00     0.089 A 
ATOM     21  C   UNL     1      -1.921   3.363  -4.488  1.00  0.00     0.002 A 
ATOM     22  C   UNL     1      -0.563   2.761  -6.433  1.00  0.00     0.030 A 
ATOM     23  C   UNL     1      -1.671   3.427  -5.877  1.00  0.00     0.002 A 
ENDBRANCH  14  15
ENDBRANCH   7   9
ENDBRANCH   1   7
BRANCH   5  24
ATOM     24  O   UNL     1      -0.010  -3.244   4.699  1.00  0.00    -0.386 OA
ATOM     25  H   UNL     1       0.628  -3.024   5.428  1.00  0.00     0.211 HD
ENDBRANCH   5  24
BRANCH   5  26
ATOM     26  C   UNL     1      -1.473  -1.550   5.582  1.00  0.00     0.193 C 
BRANCH  26  27
ATOM     27  O   UNL     1      -2.254  -0.431   5.261  1.00  0.00    -0.393 OA
ATOM     28  H   UNL     1      -2.717  -0.168   6.098  1.00  0.00     0.210 HD
ENDBRANCH  26  27
ENDBRANCH   5  26
TORSDOF 6
