REMARK SMILES O=C(N[C@@H]1CC[C@@H]2CC[C@@H]21)c1c[nH]nc1-c1cccc(F)c1
REMARK SMILES IDX 11 1 12 2 13 3 14 4 15 5 2 7 1 8 3 9 4 11 5 12 10 13 6 14
REMARK SMILES IDX 9 15 7 16 8 17 16 18 17 19 22 20 18 21 20 22 19 23 21 24
REMARK H PARENT 13 6 3 10
ROOT
ATOM      1  C   UNL     1       0.059   0.974  -2.391  1.00  0.00     0.085 A 
ATOM      2  C   UNL     1      -0.535   0.773  -3.621  1.00  0.00     0.119 A 
ATOM      3  N   UNL     1      -0.436   1.910  -4.332  1.00  0.00    -0.284 N 
ATOM      4  N   UNL     1       0.188   2.833  -3.620  1.00  0.00    -0.175 NA
ATOM      5  C   UNL     1       0.499   2.294  -2.424  1.00  0.00     0.105 A 
ATOM      6  H   UNL     1      -0.782   2.055  -5.306  1.00  0.00     0.189 HD
ENDROOT
BRANCH   1   7
ATOM      7  C   UNL     1       0.283  -0.048  -1.352  1.00  0.00     0.255 C 
ATOM      8  O   UNL     1       1.279   0.053  -0.585  1.00  0.00    -0.269 OA
ATOM      9  N   UNL     1      -0.613  -1.161  -1.220  1.00  0.00    -0.349 N 
ATOM     10  H   UNL     1      -1.407  -1.250  -1.894  1.00  0.00     0.164 HD
BRANCH   9  11
ATOM     11  C   UNL     1      -0.454  -2.161  -0.159  1.00  0.00     0.085 C 
ATOM     12  C   UNL     1      -1.476  -3.292  -0.265  1.00  0.00     0.025 C 
ATOM     13  C   UNL     1      -0.641  -1.565   1.245  1.00  0.00     0.015 C 
ATOM     14  C   UNL     1      -1.644  -3.808   1.158  1.00  0.00     0.006 C 
ATOM     15  C   UNL     1      -1.832  -0.616   1.426  1.00  0.00     0.006 C 
ATOM     16  C   UNL     1      -1.358  -2.617   2.078  1.00  0.00    -0.006 C 
ATOM     17  C   UNL     1      -2.540  -1.665   2.271  1.00  0.00     0.004 C 
ENDBRANCH   9  11
ENDBRANCH   1   7
BRANCH   5  18
ATOM     18  C   UNL     1       1.153   3.060  -1.342  1.00  0.00     0.006 A 
ATOM     19  C   UNL     1       0.742   2.916  -0.005  1.00  0.00     0.010 A 
ATOM     20  C   UNL     1       2.156   3.992  -1.655  1.00  0.00     0.049 A 
ATOM     21  C   UNL     1       1.353   3.667   1.005  1.00  0.00     0.004 A 
ATOM     22  C   UNL     1       2.763   4.742  -0.642  1.00  0.00     0.123 A 
ATOM     23  C   UNL     1       2.365   4.576   0.687  1.00  0.00     0.039 A 
ATOM     24  F   UNL     1       3.739   5.632  -0.950  1.00  0.00    -0.207 F 
ENDBRANCH   5  18
TORSDOF 3
