REMARK SMILES O=C1CCC(=O)N1c1ccc(S(=O)(=O)NC[C@H]2CCOC2)cn1
REMARK SMILES IDX 12 1 13 2 14 3 11 4 8 5 9 6 23 7 10 8 22 9 7 10 1 11 2 12
REMARK SMILES IDX 3 13 4 14 5 15 6 16 15 17 16 19 17 20 18 21 21 22 19 23
REMARK SMILES IDX 20 24
REMARK H PARENT 15 18
ROOT
ATOM      1  S   UNL     1       0.981  -1.148   1.959  1.00  0.00     0.242 S 
ATOM      2  O   UNL     1       0.927  -2.569   2.447  1.00  0.00    -0.207 OA
ATOM      3  O   UNL     1       2.102  -0.431   2.658  1.00  0.00    -0.207 OA
ENDROOT
BRANCH   1   4
ATOM      4  C   UNL     1       1.274  -1.113   0.222  1.00  0.00     0.100 A 
ATOM      5  C   UNL     1       1.694  -1.016  -2.532  1.00  0.00     0.142 A 
ATOM      6  C   UNL     1       2.030  -2.176  -1.816  1.00  0.00     0.049 A 
ATOM      7  N   UNL     1       1.183   0.054  -1.861  1.00  0.00    -0.237 NA
ATOM      8  C   UNL     1       1.816  -2.221  -0.437  1.00  0.00     0.027 A 
ATOM      9  C   UNL     1       0.969   0.033  -0.519  1.00  0.00     0.135 A 
BRANCH   5  10
ATOM     10  N   UNL     1       1.903  -0.930  -3.953  1.00  0.00    -0.234 N 
ATOM     11  O   UNL     1       2.194   1.400  -4.175  1.00  0.00    -0.274 OA
ATOM     12  C   UNL     1       2.092   0.260  -4.703  1.00  0.00     0.235 C 
ATOM     13  C   UNL     1       2.180   0.025  -6.173  1.00  0.00     0.111 C 
ATOM     14  C   UNL     1       2.014  -1.500  -6.315  1.00  0.00     0.111 C 
ATOM     15  C   UNL     1       1.825  -1.975  -4.913  1.00  0.00     0.235 C 
ATOM     16  O   UNL     1       1.563  -3.171  -4.619  1.00  0.00    -0.274 OA
ENDBRANCH   5  10
ENDBRANCH   1   4
BRANCH   1  17
ATOM     17  N   UNL     1      -0.523  -0.355   2.318  1.00  0.00    -0.211 NA
ATOM     18  H   UNL     1      -0.618  -0.336   3.360  1.00  0.00     0.141 HD
BRANCH  17  19
ATOM     19  C   UNL     1      -1.638  -1.132   1.770  1.00  0.00     0.105 C 
BRANCH  19  20
ATOM     20  C   UNL     1      -2.947  -0.322   1.860  1.00  0.00     0.032 C 
ATOM     21  C   UNL     1      -2.930   0.891   0.965  1.00  0.00     0.036 C 
ATOM     22  C   UNL     1      -4.126  -1.105   1.302  1.00  0.00     0.165 C 
ATOM     23  C   UNL     1      -3.558   0.388  -0.321  1.00  0.00     0.160 C 
ATOM     24  O   UNL     1      -4.281  -0.796  -0.064  1.00  0.00    -0.381 OA
ENDBRANCH  19  20
ENDBRANCH  17  19
ENDBRANCH   1  17
TORSDOF 5
