REMARK SMILES O=C(NC1CCOCC1)c1cncc(-c2ccc3c(c2)CCO3)c1
REMARK SMILES IDX 10 1 11 2 12 3 13 4 14 5 24 6 2 7 1 8 3 9 4 11 5 12 9 13
REMARK SMILES IDX 6 14 8 15 7 16 15 17 16 18 20 19 17 20 19 21 18 22 21 23
REMARK SMILES IDX 23 24 22 25
REMARK H PARENT 3 10
ROOT
ATOM      1  C   UNL     1      -1.066   0.458  -2.021  1.00  0.00     0.058 A 
ATOM      2  C   UNL     1      -0.886   0.698  -3.392  1.00  0.00     0.124 A 
ATOM      3  N   UNL     1       0.342   0.566  -3.956  1.00  0.00    -0.263 NA
ATOM      4  C   UNL     1       1.433   0.207  -3.230  1.00  0.00     0.119 A 
ATOM      5  C   UNL     1       1.319  -0.031  -1.851  1.00  0.00     0.001 A 
ATOM      6  C   UNL     1       0.054   0.100  -1.253  1.00  0.00     0.025 A 
ENDROOT
BRANCH   1   7
ATOM      7  C   UNL     1      -2.404   0.610  -1.403  1.00  0.00     0.253 C 
ATOM      8  O   UNL     1      -3.264   1.346  -1.959  1.00  0.00    -0.269 OA
ATOM      9  N   UNL     1      -2.736  -0.076  -0.185  1.00  0.00    -0.349 N 
ATOM     10  H   UNL     1      -2.155  -0.896   0.102  1.00  0.00     0.164 HD
BRANCH   9  11
ATOM     11  C   UNL     1      -3.891   0.309   0.637  1.00  0.00     0.086 C 
ATOM     12  C   UNL     1      -3.617   1.648   1.338  1.00  0.00     0.053 C 
ATOM     13  C   UNL     1      -4.198  -0.773   1.695  1.00  0.00     0.053 C 
ATOM     14  C   UNL     1      -2.506   1.506   2.405  1.00  0.00     0.162 C 
ATOM     15  C   UNL     1      -3.357  -0.581   2.973  1.00  0.00     0.162 C 
ATOM     16  O   UNL     1      -2.181   0.157   2.704  1.00  0.00    -0.381 OA
ENDBRANCH   9  11
ENDBRANCH   1   7
BRANCH   5  17
ATOM     17  C   UNL     1       2.507  -0.405  -1.043  1.00  0.00    -0.016 A 
ATOM     18  C   UNL     1       3.474  -1.306  -1.560  1.00  0.00     0.012 A 
ATOM     19  C   UNL     1       2.690   0.131   0.253  1.00  0.00     0.016 A 
ATOM     20  C   UNL     1       4.598  -1.663  -0.798  1.00  0.00     0.047 A 
ATOM     21  C   UNL     1       3.817  -0.246   0.983  1.00  0.00    -0.002 A 
ATOM     22  C   UNL     1       4.737  -1.113   0.472  1.00  0.00     0.122 A 
ATOM     23  C   UNL     1       4.226   0.180   2.347  1.00  0.00     0.081 C 
ATOM     24  O   UNL     1       5.764  -1.340   1.361  1.00  0.00    -0.493 OA
ATOM     25  C   UNL     1       5.552  -0.592   2.558  1.00  0.00     0.234 C 
ENDBRANCH   5  17
TORSDOF 3
