REMARK SMILES C[C@H]1OCC[C@]1(C)NC(=O)C1CCN(c2ccc(C#N)cc2F)CC1
REMARK SMILES IDX 11 1 12 2 13 3 14 4 24 5 25 6 9 7 8 8 10 9 6 11 2 12 3 13
REMARK SMILES IDX 4 14 5 15 1 16 7 17 15 18 16 19 22 20 17 21 21 22 18 23
REMARK SMILES IDX 19 24 20 25 23 26
REMARK H PARENT 8 10
ROOT
ATOM      1  C   UNL     1       0.114  -0.993   0.188  1.00  0.00     0.082 C 
ATOM      2  C   UNL     1       1.591  -1.239   0.597  1.00  0.00     0.035 C 
ATOM      3  C   UNL     1       2.579  -0.442  -0.262  1.00  0.00     0.117 C 
ATOM      4  N   UNL     1       2.380  -0.740  -1.690  1.00  0.00    -0.369 N 
ATOM      5  C   UNL     1       1.042  -1.107  -2.182  1.00  0.00     0.117 C 
ATOM      6  C   UNL     1      -0.043  -0.517  -1.275  1.00  0.00     0.035 C 
ENDROOT
BRANCH   1   7
ATOM      7  C   UNL     1      -0.558  -0.015   1.119  1.00  0.00     0.223 C 
ATOM      8  N   UNL     1      -1.846  -0.322   1.682  1.00  0.00    -0.348 N 
ATOM      9  O   UNL     1      -0.002   1.091   1.364  1.00  0.00    -0.275 OA
ATOM     10  H   UNL     1      -2.294  -1.224   1.402  1.00  0.00     0.164 HD
BRANCH   8  11
ATOM     11  C   UNL     1      -2.551   0.549   2.640  1.00  0.00     0.065 C 
ATOM     12  C   UNL     1      -4.006   0.081   2.845  1.00  0.00     0.140 C 
ATOM     13  O   UNL     1      -4.773   1.200   3.218  1.00  0.00    -0.376 OA
ATOM     14  C   UNL     1      -4.139   2.334   2.665  1.00  0.00     0.163 C 
ATOM     15  C   UNL     1      -2.799   1.931   2.065  1.00  0.00     0.059 C 
ATOM     16  C   UNL     1      -4.186  -1.048   3.866  1.00  0.00     0.041 C 
ATOM     17  C   UNL     1      -1.758   0.640   3.966  1.00  0.00     0.037 C 
ENDBRANCH   8  11
ENDBRANCH   1   7
BRANCH   4  18
ATOM     18  C   UNL     1       3.476  -0.584  -2.616  1.00  0.00     0.073 A 
ATOM     19  C   UNL     1       4.339   0.523  -2.509  1.00  0.00     0.030 A 
ATOM     20  C   UNL     1       3.704  -1.530  -3.636  1.00  0.00     0.147 A 
ATOM     21  C   UNL     1       5.400   0.686  -3.404  1.00  0.00     0.022 A 
ATOM     22  C   UNL     1       4.768  -1.362  -4.529  1.00  0.00     0.061 A 
ATOM     23  C   UNL     1       5.616  -0.255  -4.416  1.00  0.00     0.055 A 
ATOM     24  C   UNL     1       6.711  -0.087  -5.336  1.00  0.00     0.099 C 
ATOM     25  N   UNL     1       7.590   0.049  -6.076  1.00  0.00    -0.192 NA
ATOM     26  F   UNL     1       2.921  -2.631  -3.751  1.00  0.00    -0.205 F 
ENDBRANCH   4  18
TORSDOF 3
