REMARK SMILES O=C(N[C@H](c1cccnc1)C1CC1)c1cc(-c2ccccc2)[nH]n1
REMARK SMILES IDX 1 1 2 2 3 3 14 5 15 6 24 7 16 8 23 9 17 11 18 12 22 13 19 14
REMARK SMILES IDX 21 15 20 16 4 17 5 18 6 19 10 20 7 21 9 22 8 23 11 24 12 25
REMARK SMILES IDX 13 26
REMARK H PARENT 3 4 23 10
ROOT
ATOM      1  O   UNL     1       0.771   0.868   1.415  1.00  0.00    -0.267 OA
ATOM      2  C   UNL     1       0.363   0.271   0.383  1.00  0.00     0.272 C 
ATOM      3  N   UNL     1      -0.001  -1.119   0.449  1.00  0.00    -0.344 N 
ATOM      4  H   UNL     1      -0.259  -1.617  -0.431  1.00  0.00     0.164 HD
ENDROOT
BRANCH   2   5
ATOM      5  C   UNL     1       0.270   1.024  -0.881  1.00  0.00     0.150 A 
ATOM      6  C   UNL     1      -0.220   0.565  -2.092  1.00  0.00     0.064 A 
ATOM      7  N   UNL     1       0.655   2.309  -1.005  1.00  0.00    -0.170 NA
ATOM      8  C   UNL     1      -0.097   1.649  -2.944  1.00  0.00     0.066 A 
ATOM      9  N   UNL     1       0.433   2.680  -2.255  1.00  0.00    -0.277 N 
ATOM     10  H   UNL     1       0.628   3.640  -2.612  1.00  0.00     0.190 HD
BRANCH   8  11
ATOM     11  C   UNL     1      -0.485   1.695  -4.377  1.00  0.00    -0.000 A 
ATOM     12  C   UNL     1      -1.386   0.750  -4.906  1.00  0.00     0.010 A 
ATOM     13  C   UNL     1       0.042   2.680  -5.232  1.00  0.00     0.010 A 
ATOM     14  C   UNL     1      -1.750   0.794  -6.255  1.00  0.00     0.001 A 
ATOM     15  C   UNL     1      -0.325   2.720  -6.581  1.00  0.00     0.001 A 
ATOM     16  C   UNL     1      -1.221   1.778  -7.092  1.00  0.00     0.000 A 
ENDBRANCH   8  11
ENDBRANCH   2   5
BRANCH   3  17
ATOM     17  C   UNL     1      -0.064  -1.872   1.709  1.00  0.00     0.117 C 
BRANCH  17  18
ATOM     18  C   UNL     1       0.695  -3.171   1.552  1.00  0.00    -0.007 A 
ATOM     19  C   UNL     1       0.216  -4.190   0.710  1.00  0.00     0.009 A 
ATOM     20  C   UNL     1       1.917  -3.372   2.215  1.00  0.00     0.116 A 
ATOM     21  C   UNL     1       0.941  -5.374   0.561  1.00  0.00     0.020 A 
ATOM     22  N   UNL     1       2.604  -4.534   2.051  1.00  0.00    -0.264 NA
ATOM     23  C   UNL     1       2.145  -5.530   1.249  1.00  0.00     0.111 A 
ENDBRANCH  17  18
BRANCH  17  24
ATOM     24  C   UNL     1      -1.513  -2.160   2.177  1.00  0.00     0.016 C 
ATOM     25  C   UNL     1      -2.359  -0.915   2.414  1.00  0.00     0.006 C 
ATOM     26  C   UNL     1      -2.691  -1.846   1.259  1.00  0.00     0.006 C 
ENDBRANCH  17  24
ENDBRANCH   3  17
TORSDOF 5
