REMARK SMILES CCCn1nc(NCc2nc(CC3CC3)no2)c2ccccc21
REMARK SMILES IDX 7 1 6 3 4 4 5 5 23 6 22 7 18 8 21 9 19 10 20 11 3 12 2 13
REMARK SMILES IDX 1 14 8 15 9 16 10 17 17 18 11 19 16 20 12 21 13 22 14 23
REMARK SMILES IDX 15 24
REMARK H PARENT 7 2
ROOT
ATOM      1  N   UNL     1      -0.372  -2.715   2.280  1.00  0.00    -0.359 N 
ATOM      2  H   UNL     1      -0.107  -3.116   3.208  1.00  0.00     0.162 HD
ENDROOT
BRANCH   1   3
ATOM      3  C   UNL     1      -0.830  -1.359   2.205  1.00  0.00     0.156 A 
ATOM      4  N   UNL     1      -1.556   0.500   1.360  1.00  0.00    -0.263 N 
ATOM      5  N   UNL     1      -1.263  -0.763   1.069  1.00  0.00    -0.154 NA
ATOM      6  C   UNL     1      -1.289   0.719   2.666  1.00  0.00     0.070 A 
ATOM      7  C   UNL     1      -1.377   1.906   3.395  1.00  0.00     0.029 A 
ATOM      8  C   UNL     1      -0.834  -0.441   3.234  1.00  0.00     0.044 A 
ATOM      9  C   UNL     1      -0.989   1.870   4.748  1.00  0.00     0.002 A 
ATOM     10  C   UNL     1      -0.436  -0.509   4.567  1.00  0.00     0.014 A 
ATOM     11  C   UNL     1      -0.522   0.669   5.332  1.00  0.00     0.001 A 
BRANCH   4  12
ATOM     12  C   UNL     1      -1.973   1.479   0.358  1.00  0.00     0.145 C 
BRANCH  12  13
ATOM     13  C   UNL     1      -0.745   2.176  -0.233  1.00  0.00     0.020 C 
ATOM     14  C   UNL     1      -1.131   3.107  -1.379  1.00  0.00     0.006 C 
ENDBRANCH  12  13
ENDBRANCH   4  12
ENDBRANCH   1   3
BRANCH   1  15
ATOM     15  C   UNL     1      -0.273  -3.560   1.094  1.00  0.00     0.215 C 
BRANCH  15  16
ATOM     16  C   UNL     1       0.792  -3.041   0.180  1.00  0.00     0.245 A 
ATOM     17  N   UNL     1       0.554  -2.555  -1.055  1.00  0.00    -0.195 NA
ATOM     18  O   UNL     1       2.064  -2.981   0.491  1.00  0.00    -0.337 OA
ATOM     19  C   UNL     1       1.802  -2.209  -1.440  1.00  0.00     0.172 A 
ATOM     20  N   UNL     1       2.730  -2.463  -0.495  1.00  0.00    -0.062 NA
BRANCH  19  21
ATOM     21  C   UNL     1       2.117  -1.573  -2.756  1.00  0.00     0.084 C 
BRANCH  21  22
ATOM     22  C   UNL     1       1.652  -0.113  -2.755  1.00  0.00    -0.003 C 
ATOM     23  C   UNL     1       2.410   0.798  -3.709  1.00  0.00     0.004 C 
ATOM     24  C   UNL     1       2.646   0.901  -2.210  1.00  0.00     0.004 C 
ENDBRANCH  21  22
ENDBRANCH  19  21
ENDBRANCH  15  16
ENDBRANCH   1  15
TORSDOF 7
