REMARK SMILES CO[C@@]1(c2nnc3n2CCN(C(=O)OC(C)(C)C)C3)CCOC1
REMARK SMILES IDX 4 1 5 2 6 3 7 4 19 5 11 6 10 7 9 8 8 9 3 10 20 11 23 12
REMARK SMILES IDX 21 13 22 14 2 15 1 16 12 17 13 18 14 19 15 20 16 21 17 22
REMARK SMILES IDX 18 23
REMARK H PARENT
ROOT
ATOM      1  C   UNL     1      -1.013  -0.770   2.605  1.00  0.00     0.167 A 
ATOM      2  N   UNL     1      -1.299  -2.072   2.381  1.00  0.00    -0.132 NA
ATOM      3  N   UNL     1      -0.784  -2.400   1.205  1.00  0.00    -0.133 NA
ATOM      4  C   UNL     1      -0.176  -1.298   0.733  1.00  0.00     0.152 A 
ATOM      5  C   UNL     1       0.530  -1.215  -0.584  1.00  0.00     0.200 C 
ATOM      6  N   UNL     1       1.056   0.140  -0.822  1.00  0.00    -0.299 N 
ATOM      7  C   UNL     1       1.412   0.997   0.325  1.00  0.00     0.145 C 
ATOM      8  C   UNL     1       0.255   1.071   1.328  1.00  0.00     0.147 C 
ATOM      9  N   UNL     1      -0.270  -0.269   1.589  1.00  0.00    -0.309 N 
ENDROOT
BRANCH   1  10
ATOM     10  C   UNL     1      -1.412  -0.060   3.903  1.00  0.00     0.153 C 
ATOM     11  C   UNL     1      -2.793  -0.529   4.315  1.00  0.00     0.075 C 
ATOM     12  C   UNL     1      -1.693   1.446   3.779  1.00  0.00     0.204 C 
ATOM     13  C   UNL     1      -3.341   0.637   5.112  1.00  0.00     0.164 C 
ATOM     14  O   UNL     1      -2.675   1.813   4.720  1.00  0.00    -0.378 OA
BRANCH  10  15
ATOM     15  O   UNL     1      -0.536  -0.354   4.991  1.00  0.00    -0.368 OA
ATOM     16  C   UNL     1       0.828  -0.110   4.708  1.00  0.00     0.196 C 
ENDBRANCH  10  15
ENDBRANCH   1  10
BRANCH   6  17
ATOM     17  C   UNL     1       1.484   0.488  -2.153  1.00  0.00     0.410 C 
ATOM     18  O   UNL     1       2.034   1.602  -2.369  1.00  0.00    -0.224 OA
BRANCH  17  19
ATOM     19  O   UNL     1       1.282  -0.423  -3.203  1.00  0.00    -0.444 OA
BRANCH  19  20
ATOM     20  C   UNL     1       1.649  -0.235  -4.578  1.00  0.00     0.106 C 
ATOM     21  C   UNL     1       3.173  -0.059  -4.715  1.00  0.00     0.056 C 
ATOM     22  C   UNL     1       0.905   0.975  -5.177  1.00  0.00     0.056 C 
ATOM     23  C   UNL     1       1.226  -1.502  -5.337  1.00  0.00     0.056 C 
ENDBRANCH  19  20
ENDBRANCH  17  19
ENDBRANCH   6  17
TORSDOF 5
