REMARK SMILES O=C(NC[C@H]1NCC[C@@H]1C1CC1)c1ccc(N2CCCS2(=O)=O)cc1Cl
REMARK SMILES IDX 1 1 2 2 3 3 13 5 14 6 25 7 15 8 24 9 16 10 26 11 17 12 18 13
REMARK SMILES IDX 21 14 19 15 20 16 22 17 23 18 4 19 5 20 6 21 9 22 7 23 8 24
REMARK SMILES IDX 10 26 11 27 12 28
REMARK H PARENT 3 4 6 25
ROOT
ATOM      1  O   UNL     1       1.475   1.218   0.371  1.00  0.00    -0.269 OA
ATOM      2  C   UNL     1       0.399   0.578   0.527  1.00  0.00     0.252 C 
ATOM      3  N   UNL     1      -0.856   1.219   0.246  1.00  0.00    -0.350 N 
ATOM      4  H   UNL     1      -1.748   0.684   0.351  1.00  0.00     0.163 HD
ENDROOT
BRANCH   2   5
ATOM      5  C   UNL     1       0.440  -0.818   1.028  1.00  0.00     0.058 A 
ATOM      6  C   UNL     1      -0.549  -1.258   1.923  1.00  0.00     0.017 A 
ATOM      7  C   UNL     1       1.462  -1.716   0.650  1.00  0.00     0.055 A 
ATOM      8  C   UNL     1      -0.529  -2.559   2.429  1.00  0.00     0.028 A 
ATOM      9  C   UNL     1       1.479  -3.018   1.166  1.00  0.00     0.048 A 
ATOM     10  C   UNL     1       0.488  -3.456   2.064  1.00  0.00     0.053 A 
ATOM     11  Cl  UNL     1       2.708  -1.282  -0.516  1.00  0.00    -0.083 Cl
BRANCH  10  12
ATOM     12  N   UNL     1       0.511  -4.803   2.591  1.00  0.00    -0.270 N 
ATOM     13  C   UNL     1       1.436  -5.846   2.149  1.00  0.00     0.136 C 
ATOM     14  S   UNL     1      -0.392  -5.321   3.957  1.00  0.00     0.235 S 
ATOM     15  C   UNL     1       1.042  -7.180   2.822  1.00  0.00     0.041 C 
ATOM     16  C   UNL     1       0.357  -6.902   4.164  1.00  0.00     0.162 C 
ATOM     17  O   UNL     1      -0.154  -4.434   5.150  1.00  0.00    -0.206 OA
ATOM     18  O   UNL     1      -1.857  -5.439   3.638  1.00  0.00    -0.206 OA
ENDBRANCH  10  12
ENDBRANCH   2   5
BRANCH   3  19
ATOM     19  C   UNL     1      -0.940   2.606  -0.209  1.00  0.00     0.135 C 
BRANCH  19  20
ATOM     20  C   UNL     1      -0.643   2.704  -1.721  1.00  0.00     0.076 C 
ATOM     21  N   UNL     1      -1.615   1.941  -2.521  1.00  0.00    -0.312 NA
ATOM     22  C   UNL     1      -0.661   4.171  -2.209  1.00  0.00     0.012 C 
ATOM     23  C   UNL     1      -1.922   2.767  -3.685  1.00  0.00     0.081 C 
ATOM     24  C   UNL     1      -1.759   4.210  -3.260  1.00  0.00     0.021 C 
ATOM     25  H   UNL     1      -2.509   1.820  -1.986  1.00  0.00     0.123 HD
BRANCH  22  26
ATOM     26  C   UNL     1       0.696   4.559  -2.834  1.00  0.00    -0.006 C 
ATOM     27  C   UNL     1       1.099   6.019  -2.688  1.00  0.00     0.004 C 
ATOM     28  C   UNL     1       1.774   4.955  -1.835  1.00  0.00     0.004 C 
ENDBRANCH  22  26
ENDBRANCH  19  20
ENDBRANCH   3  19
TORSDOF 5
