REMARK SMILES O=C(c1ccc(-n2cnc3ccccc32)cc1)N1CCC[C@](O)(CO)C1
REMARK SMILES IDX 18 1 19 2 20 3 21 4 22 5 26 6 2 7 1 8 3 9 4 10 17 11 5 12
REMARK SMILES IDX 16 13 6 14 7 15 8 16 15 17 9 18 14 19 10 20 13 21 11 22
REMARK SMILES IDX 12 23 23 24 24 26 25 27
REMARK H PARENT 23 25 25 28
ROOT
ATOM      1  N   UNL     1      -2.477  -1.354   1.108  1.00  0.00    -0.336 N 
ATOM      2  C   UNL     1      -3.341  -1.274   2.293  1.00  0.00     0.120 C 
ATOM      3  C   UNL     1      -4.816  -1.305   1.885  1.00  0.00     0.025 C 
ATOM      4  C   UNL     1      -5.177  -0.210   0.860  1.00  0.00     0.041 C 
ATOM      5  C   UNL     1      -3.978   0.291   0.004  1.00  0.00     0.105 C 
ATOM      6  C   UNL     1      -2.949  -0.849  -0.191  1.00  0.00     0.157 C 
ENDROOT
BRANCH   1   7
ATOM      7  C   UNL     1      -1.236  -2.074   1.182  1.00  0.00     0.253 C 
ATOM      8  O   UNL     1      -1.230  -3.247   1.646  1.00  0.00    -0.269 OA
BRANCH   7   9
ATOM      9  C   UNL     1       0.035  -1.460   0.733  1.00  0.00     0.040 A 
ATOM     10  C   UNL     1       1.112  -2.268   0.334  1.00  0.00     0.016 A 
ATOM     11  C   UNL     1       0.194  -0.064   0.734  1.00  0.00     0.016 A 
ATOM     12  C   UNL     1       2.315  -1.690  -0.083  1.00  0.00     0.027 A 
ATOM     13  C   UNL     1       1.396   0.513   0.318  1.00  0.00     0.027 A 
ATOM     14  C   UNL     1       2.461  -0.295  -0.110  1.00  0.00     0.047 A 
BRANCH  14  15
ATOM     15  N   UNL     1       3.706   0.293  -0.525  1.00  0.00    -0.299 N 
ATOM     16  C   UNL     1       4.951  -0.116  -0.171  1.00  0.00     0.205 A 
ATOM     17  C   UNL     1       3.918   1.351  -1.328  1.00  0.00     0.073 A 
ATOM     18  N   UNL     1       5.940   0.645  -0.708  1.00  0.00    -0.236 NA
ATOM     19  C   UNL     1       2.999   2.128  -2.039  1.00  0.00     0.029 A 
ATOM     20  C   UNL     1       5.264   1.557  -1.430  1.00  0.00     0.089 A 
ATOM     21  C   UNL     1       3.505   3.167  -2.842  1.00  0.00     0.002 A 
ATOM     22  C   UNL     1       5.796   2.575  -2.219  1.00  0.00     0.030 A 
ATOM     23  C   UNL     1       4.897   3.392  -2.929  1.00  0.00     0.002 A 
ENDBRANCH  14  15
ENDBRANCH   7   9
ENDBRANCH   1   7
BRANCH   5  24
ATOM     24  O   UNL     1      -3.365   1.361   0.687  1.00  0.00    -0.386 OA
ATOM     25  H   UNL     1      -2.623   1.702   0.122  1.00  0.00     0.211 HD
ENDBRANCH   5  24
BRANCH   5  26
ATOM     26  C   UNL     1      -4.482   0.780  -1.378  1.00  0.00     0.193 C 
BRANCH  26  27
ATOM     27  O   UNL     1      -5.417   1.817  -1.233  1.00  0.00    -0.393 OA
ATOM     28  H   UNL     1      -4.899   2.649  -1.076  1.00  0.00     0.210 HD
ENDBRANCH  26  27
ENDBRANCH   5  26
TORSDOF 6
