REMARK SMILES CC1(CC(=O)NCc2ccc(-n3cncn3)cc2)OCCO1
REMARK SMILES IDX 4 1 5 2 6 3 3 5 2 6 19 7 22 8 20 9 21 10 1 11 7 12 8 13 9 14
REMARK SMILES IDX 18 15 10 16 17 17 11 18 12 19 13 20 16 21 14 22 15 23
REMARK H PARENT 6 4
ROOT
ATOM      1  C   UNL     1       2.496   0.409  -0.100  1.00  0.00     0.225 C 
ATOM      2  O   UNL     1       2.470  -0.684   0.528  1.00  0.00    -0.275 OA
ATOM      3  N   UNL     1       2.380   0.425  -1.530  1.00  0.00    -0.352 N 
ATOM      4  H   UNL     1       2.487   1.331  -2.039  1.00  0.00     0.163 HD
ENDROOT
BRANCH   1   5
ATOM      5  C   UNL     1       2.607   1.698   0.664  1.00  0.00     0.165 C 
BRANCH   5   6
ATOM      6  C   UNL     1       1.244   2.194   1.192  1.00  0.00     0.174 C 
ATOM      7  O   UNL     1       1.460   3.370   1.943  1.00  0.00    -0.347 OA
ATOM      8  O   UNL     1       0.654   1.185   1.987  1.00  0.00    -0.347 OA
ATOM      9  C   UNL     1       1.169   3.042   3.263  1.00  0.00     0.192 C 
ATOM     10  C   UNL     1       0.370   1.777   3.213  1.00  0.00     0.192 C 
ATOM     11  C   UNL     1       0.292   2.532   0.035  1.00  0.00     0.076 C 
ENDBRANCH   5   6
ENDBRANCH   1   5
BRANCH   3  12
ATOM     12  C   UNL     1       2.011  -0.762  -2.297  1.00  0.00     0.151 C 
BRANCH  12  13
ATOM     13  C   UNL     1       0.544  -1.047  -2.125  1.00  0.00    -0.029 A 
ATOM     14  C   UNL     1       0.110  -2.061  -1.260  1.00  0.00     0.008 A 
ATOM     15  C   UNL     1      -0.405  -0.254  -2.784  1.00  0.00     0.008 A 
ATOM     16  C   UNL     1      -1.256  -2.285  -1.065  1.00  0.00     0.029 A 
ATOM     17  C   UNL     1      -1.772  -0.476  -2.589  1.00  0.00     0.029 A 
ATOM     18  C   UNL     1      -2.215  -1.494  -1.723  1.00  0.00     0.066 A 
BRANCH  18  19
ATOM     19  N   UNL     1      -3.620  -1.737  -1.505  1.00  0.00    -0.221 N 
ATOM     20  C   UNL     1      -4.669  -1.005  -1.931  1.00  0.00     0.225 A 
ATOM     21  N   UNL     1      -4.098  -2.758  -0.815  1.00  0.00    -0.155 NA
ATOM     22  N   UNL     1      -5.838  -1.539  -1.526  1.00  0.00    -0.223 NA
ATOM     23  C   UNL     1      -5.437  -2.628  -0.836  1.00  0.00     0.246 A 
ENDBRANCH  18  19
ENDBRANCH  12  13
ENDBRANCH   3  12
TORSDOF 5
