REMARK SMILES COc1cc(OC)cc(S(=O)(=O)Nc2cc(S(=O)(=O)NC(C)(C)C)ccc2OC)c1
REMARK SMILES IDX 14 1 15 2 16 3 25 4 26 5 27 6 13 7 10 9 11 10 12 11 9 12
REMARK SMILES IDX 3 13 4 14 30 15 5 16 8 17 2 18 1 19 6 20 7 21 28 22 29 23
REMARK SMILES IDX 17 24 18 25 19 26 20 27 21 29 22 30 23 31 24 32
REMARK H PARENT 13 8 20 28
ROOT
ATOM      1  C   UNL     1       2.229   0.013   0.026  1.00  0.00     0.092 A 
ATOM      2  C   UNL     1       0.993  -0.385   0.567  1.00  0.00     0.052 A 
ATOM      3  C   UNL     1       0.876  -1.580   1.284  1.00  0.00     0.084 A 
ATOM      4  C   UNL     1       2.005  -2.379   1.483  1.00  0.00     0.026 A 
ATOM      5  C   UNL     1       3.244  -1.985   0.975  1.00  0.00     0.050 A 
ATOM      6  C   UNL     1       3.369  -0.787   0.244  1.00  0.00     0.143 A 
ENDROOT
BRANCH   1   7
ATOM      7  N   UNL     1       2.340   1.228  -0.738  1.00  0.00    -0.276 N 
ATOM      8  H   UNL     1       3.279   1.658  -0.891  1.00  0.00     0.180 HD
BRANCH   7   9
ATOM      9  S   UNL     1       1.013   1.916  -1.620  1.00  0.00     0.262 S 
ATOM     10  O   UNL     1       0.283   0.820  -2.347  1.00  0.00    -0.201 OA
ATOM     11  O   UNL     1       1.541   2.890  -2.635  1.00  0.00    -0.201 OA
BRANCH   9  12
ATOM     12  C   UNL     1      -0.066   2.765  -0.517  1.00  0.00     0.095 A 
ATOM     13  C   UNL     1      -2.262   3.056   0.496  1.00  0.00     0.123 A 
ATOM     14  C   UNL     1      -1.746   4.088   1.288  1.00  0.00     0.092 A 
ATOM     15  C   UNL     1      -1.416   2.399  -0.415  1.00  0.00     0.069 A 
ATOM     16  C   UNL     1      -0.402   4.465   1.194  1.00  0.00     0.123 A 
ATOM     17  C   UNL     1       0.439   3.793   0.286  1.00  0.00     0.069 A 
BRANCH  13  18
ATOM     18  O   UNL     1      -3.614   2.712   0.648  1.00  0.00    -0.497 OA
ATOM     19  C   UNL     1      -4.257   1.652  -0.051  1.00  0.00     0.278 C 
ENDBRANCH  13  18
BRANCH  16  20
ATOM     20  O   UNL     1       0.059   5.502   2.018  1.00  0.00    -0.497 OA
ATOM     21  C   UNL     1       1.399   5.981   2.035  1.00  0.00     0.278 C 
ENDBRANCH  16  20
ENDBRANCH   9  12
ENDBRANCH   7   9
ENDBRANCH   1   7
BRANCH   6  22
ATOM     22  O   UNL     1       4.601  -0.371  -0.288  1.00  0.00    -0.495 OA
ATOM     23  C   UNL     1       5.825  -1.084  -0.145  1.00  0.00     0.278 C 
ENDBRANCH   6  22
BRANCH   3  24
ATOM     24  S   UNL     1      -0.682  -2.086   1.930  1.00  0.00     0.241 S 
ATOM     25  O   UNL     1      -0.473  -2.485   3.364  1.00  0.00    -0.207 OA
ATOM     26  O   UNL     1      -1.652  -0.937   1.916  1.00  0.00    -0.207 OA
BRANCH  24  27
ATOM     27  N   UNL     1      -1.356  -3.454   1.074  1.00  0.00    -0.206 NA
ATOM     28  H   UNL     1      -0.733  -4.275   1.258  1.00  0.00     0.141 HD
BRANCH  27  29
ATOM     29  C   UNL     1      -1.580  -3.310  -0.387  1.00  0.00     0.025 C 
ATOM     30  C   UNL     1      -2.467  -4.495  -0.819  1.00  0.00     0.028 C 
ATOM     31  C   UNL     1      -0.257  -3.387  -1.184  1.00  0.00     0.028 C 
ATOM     32  C   UNL     1      -2.332  -2.008  -0.738  1.00  0.00     0.028 C 
ENDBRANCH  27  29
ENDBRANCH  24  27
ENDBRANCH   3  24
TORSDOF 9
