REMARK SMILES Cc1ccc(SCC(=O)N2CCC3(CC2)C[C@H](O)CCO3)cc1
REMARK SMILES IDX 7 1 6 2 5 3 2 4 3 5 23 6 4 7 22 8 1 9 8 10 9 11 10 12 11 13
REMARK SMILES IDX 15 14 12 15 14 16 13 17 16 18 21 19 17 20 20 21 19 22 18 23
REMARK H PARENT 18 24
ROOT
ATOM      1  C   UNL     1      -0.172   3.145   1.688  1.00  0.00     0.175 C 
ENDROOT
BRANCH   1   2
ATOM      2  S   UNL     1      -1.209   1.880   2.508  1.00  0.00    -0.116 SA
BRANCH   2   3
ATOM      3  C   UNL     1       0.157   1.031   3.306  1.00  0.00     0.008 A 
ATOM      4  C   UNL     1       2.284  -0.310   4.555  1.00  0.00    -0.051 A 
ATOM      5  C   UNL     1       1.801  -0.751   3.312  1.00  0.00     0.004 A 
ATOM      6  C   UNL     1       1.680   0.793   5.178  1.00  0.00     0.004 A 
ATOM      7  C   UNL     1       0.743  -0.081   2.691  1.00  0.00     0.015 A 
ATOM      8  C   UNL     1       0.621   1.462   4.555  1.00  0.00     0.015 A 
ATOM      9  C   UNL     1       3.397  -1.043   5.244  1.00  0.00     0.044 C 
ENDBRANCH   2   3
ENDBRANCH   1   2
BRANCH   1  10
ATOM     10  C   UNL     1       0.771   2.527   0.691  1.00  0.00     0.232 C 
ATOM     11  O   UNL     1       2.004   2.546   0.958  1.00  0.00    -0.274 OA
ATOM     12  N   UNL     1       0.316   1.883  -0.523  1.00  0.00    -0.342 N 
ATOM     13  C   UNL     1      -1.081   1.939  -0.982  1.00  0.00     0.122 C 
ATOM     14  C   UNL     1       1.302   1.165  -1.347  1.00  0.00     0.122 C 
ATOM     15  C   UNL     1      -1.570   0.528  -1.330  1.00  0.00     0.057 C 
ATOM     16  C   UNL     1       0.664   0.564  -2.608  1.00  0.00     0.057 C 
ATOM     17  C   UNL     1      -0.609  -0.268  -2.282  1.00  0.00     0.074 C 
ATOM     18  C   UNL     1      -0.194  -1.615  -1.587  1.00  0.00     0.067 C 
ATOM     19  O   UNL     1      -1.329  -0.476  -3.502  1.00  0.00    -0.375 OA
ATOM     20  C   UNL     1      -1.231  -2.699  -1.883  1.00  0.00     0.119 C 
ATOM     21  C   UNL     1      -0.939  -1.651  -4.187  1.00  0.00     0.163 C 
ATOM     22  C   UNL     1      -1.357  -2.907  -3.405  1.00  0.00     0.060 C 
BRANCH  20  23
ATOM     23  O   UNL     1      -0.849  -3.896  -1.256  1.00  0.00    -0.393 OA
ATOM     24  H   UNL     1      -1.643  -4.492  -1.274  1.00  0.00     0.210 HD
ENDBRANCH  20  23
ENDBRANCH   1  10
TORSDOF 4
