REMARK SMILES N#Cc1ccsc1S(=O)(=O)Nc1cccc2c1NC(=O)C2
REMARK SMILES IDX 11 1 8 3 9 4 10 5 7 6 1 7 2 8 3 9 4 10 5 11 6 12 12 13 13 14
REMARK SMILES IDX 17 15 14 16 18 17 16 18 15 19 19 20 21 21 20 22
REMARK H PARENT 11 2 18 23
ROOT
ATOM      1  N   UNL     1       0.165  -1.237  -1.001  1.00  0.00    -0.277 N 
ATOM      2  H   UNL     1       0.927  -1.940  -1.105  1.00  0.00     0.180 HD
ENDROOT
BRANCH   1   3
ATOM      3  S   UNL     1      -1.458  -1.848  -1.066  1.00  0.00     0.272 S 
ATOM      4  O   UNL     1      -2.162  -1.252  -2.253  1.00  0.00    -0.200 OA
ATOM      5  O   UNL     1      -1.415  -3.342  -1.218  1.00  0.00    -0.200 OA
BRANCH   3   6
ATOM      6  C   UNL     1      -2.309  -1.456   0.423  1.00  0.00     0.158 A 
ATOM      7  N   UNL     1      -5.424  -1.819  -1.276  1.00  0.00    -0.192 NA
ATOM      8  C   UNL     1      -4.649  -1.625  -0.439  1.00  0.00     0.101 C 
ATOM      9  C   UNL     1      -3.686  -1.383   0.603  1.00  0.00     0.083 A 
ATOM     10  C   UNL     1      -4.057  -1.057   1.914  1.00  0.00     0.032 A 
ATOM     11  C   UNL     1      -2.975  -0.878   2.768  1.00  0.00     0.068 A 
ATOM     12  S   UNL     1      -1.560  -1.127   1.891  1.00  0.00    -0.129 S 
ENDBRANCH   3   6
ENDBRANCH   1   3
BRANCH   1  13
ATOM     13  C   UNL     1       0.493   0.147  -0.770  1.00  0.00     0.073 A 
ATOM     14  C   UNL     1      -0.493   1.162  -0.779  1.00  0.00     0.029 A 
ATOM     15  C   UNL     1       1.821   0.540  -0.530  1.00  0.00     0.069 A 
ATOM     16  C   UNL     1      -0.144   2.506  -0.549  1.00  0.00     0.003 A 
ATOM     17  N   UNL     1       2.965  -0.298  -0.462  1.00  0.00    -0.324 N 
ATOM     18  C   UNL     1       2.156   1.863  -0.305  1.00  0.00    -0.013 A 
ATOM     19  C   UNL     1       1.189   2.865  -0.310  1.00  0.00     0.006 A 
ATOM     20  C   UNL     1       4.047   0.581  -0.181  1.00  0.00     0.228 C 
ATOM     21  C   UNL     1       3.623   2.012  -0.063  1.00  0.00     0.138 C 
ATOM     22  O   UNL     1       5.234   0.183  -0.045  1.00  0.00    -0.274 OA
ATOM     23  H   UNL     1       3.020  -1.335  -0.564  1.00  0.00     0.170 HD
ENDBRANCH   1  13
TORSDOF 3
