REMARK SMILES C[C@H]1CC[C@@]2(CCN(C(=O)c3ccc(-c4nn[nH]n4)o3)C2)CC1
REMARK SMILES IDX 11 1 12 2 13 3 14 4 20 5 9 6 10 7 8 8 2 9 3 10 23 11 4 12
REMARK SMILES IDX 22 13 5 14 6 15 21 16 7 17 1 18 15 19 16 20 19 21 17 22
REMARK SMILES IDX 18 23
REMARK H PARENT 18 24
ROOT
ATOM      1  C   UNL     1       2.261   2.385  -0.851  1.00  0.00     0.192 A 
ATOM      2  C   UNL     1       3.411   2.924  -1.401  1.00  0.00     0.057 A 
ATOM      3  C   UNL     1       4.301   1.878  -1.520  1.00  0.00     0.055 A 
ATOM      4  C   UNL     1       3.638   0.768  -1.034  1.00  0.00     0.176 A 
ATOM      5  O   UNL     1       2.430   1.100  -0.643  1.00  0.00    -0.447 OA
ENDROOT
BRANCH   1   6
ATOM      6  C   UNL     1       1.029   3.137  -0.534  1.00  0.00     0.289 C 
ATOM      7  O   UNL     1       1.024   4.387  -0.700  1.00  0.00    -0.265 OA
BRANCH   6   8
ATOM      8  N   UNL     1      -0.159   2.488  -0.038  1.00  0.00    -0.335 N 
ATOM      9  C   UNL     1      -2.657  -1.934  -0.508  1.00  0.00    -0.014 C 
ATOM     10  C   UNL     1      -1.804  -1.686   0.750  1.00  0.00     0.004 C 
ATOM     11  C   UNL     1      -2.482  -0.793  -1.529  1.00  0.00     0.004 C 
ATOM     12  C   UNL     1      -2.071  -0.311   1.379  1.00  0.00     0.009 C 
ATOM     13  C   UNL     1      -2.701   0.601  -0.913  1.00  0.00     0.009 C 
ATOM     14  C   UNL     1      -1.854   0.846   0.370  1.00  0.00    -0.010 C 
ATOM     15  C   UNL     1      -2.263   2.195   1.005  1.00  0.00     0.030 C 
ATOM     16  C   UNL     1      -0.359   1.049   0.029  1.00  0.00     0.127 C 
ATOM     17  C   UNL     1      -1.319   3.233   0.415  1.00  0.00     0.120 C 
ATOM     18  C   UNL     1      -4.136  -2.183  -0.169  1.00  0.00     0.007 C 
ENDBRANCH   6   8
ENDBRANCH   1   6
BRANCH   4  19
ATOM     19  C   UNL     1       4.176  -0.592  -0.955  1.00  0.00     0.239 A 
ATOM     20  N   UNL     1       3.491  -1.648  -0.475  1.00  0.00    -0.105 NA
ATOM     21  N   UNL     1       5.413  -0.947  -1.351  1.00  0.00    -0.130 NA
ATOM     22  N   UNL     1       4.326  -2.668  -0.581  1.00  0.00    -0.050 NA
ATOM     23  N   UNL     1       5.465  -2.244  -1.101  1.00  0.00    -0.177 N 
ATOM     24  H   UNL     1       6.293  -2.851  -1.290  1.00  0.00     0.216 HD
ENDBRANCH   4  19
TORSDOF 3
