REMARK SMILES CSc1cc(C)ccc1C(=O)Nc1[nH]nnc1C(=O)N1CCCC1
REMARK SMILES IDX 3 1 4 2 5 3 6 4 7 5 8 6 9 7 2 8 1 9 10 10 11 11 12 12 13 14
REMARK SMILES IDX 14 15 17 16 15 17 16 18 18 20 19 21 20 22 21 23 24 24 22 25
REMARK SMILES IDX 23 26
REMARK H PARENT 12 13 14 19
ROOT
ATOM      1  C   UNL     1      -3.464   0.942   1.659  1.00  0.00     0.020 A 
ATOM      2  C   UNL     1      -3.931   1.293   2.933  1.00  0.00     0.019 A 
ATOM      3  C   UNL     1      -3.171   2.120   3.771  1.00  0.00    -0.050 A 
ATOM      4  C   UNL     1      -3.694   2.517   5.120  1.00  0.00     0.044 C 
ATOM      5  C   UNL     1      -1.948   2.624   3.314  1.00  0.00     0.004 A 
ATOM      6  C   UNL     1      -1.476   2.285   2.044  1.00  0.00     0.015 A 
ATOM      7  C   UNL     1      -2.223   1.446   1.200  1.00  0.00     0.053 A 
ENDROOT
BRANCH   1   8
ATOM      8  S   UNL     1      -4.466  -0.189   0.677  1.00  0.00    -0.129 SA
ATOM      9  C   UNL     1      -3.634  -1.675   1.319  1.00  0.00     0.091 C 
ENDBRANCH   1   8
BRANCH   7  10
ATOM     10  C   UNL     1      -1.689   1.126  -0.146  1.00  0.00     0.258 C 
ATOM     11  O   UNL     1      -2.473   1.054  -1.131  1.00  0.00    -0.269 OA
ATOM     12  N   UNL     1      -0.284   0.887  -0.326  1.00  0.00    -0.305 N 
ATOM     13  H   UNL     1       0.302   0.725   0.522  1.00  0.00     0.171 HD
BRANCH  12  14
ATOM     14  C   UNL     1       0.345   0.841  -1.616  1.00  0.00     0.162 A 
ATOM     15  N   UNL     1      -0.064   1.527  -2.696  1.00  0.00    -0.242 N 
ATOM     16  C   UNL     1       1.532   0.210  -1.949  1.00  0.00     0.194 A 
ATOM     17  N   UNL     1       0.822   1.323  -3.656  1.00  0.00    -0.067 NA
ATOM     18  N   UNL     1       1.796   0.527  -3.234  1.00  0.00    -0.123 NA
ATOM     19  H   UNL     1      -0.894   2.155  -2.781  1.00  0.00     0.194 HD
BRANCH  16  20
ATOM     20  C   UNL     1       2.360  -0.684  -1.104  1.00  0.00     0.278 C 
ATOM     21  O   UNL     1       1.897  -1.073   0.003  1.00  0.00    -0.267 OA
ATOM     22  N   UNL     1       3.673  -1.131  -1.501  1.00  0.00    -0.337 N 
ATOM     23  C   UNL     1       4.292  -0.889  -2.795  1.00  0.00     0.120 C 
ATOM     24  C   UNL     1       4.535  -1.887  -0.607  1.00  0.00     0.120 C 
ATOM     25  C   UNL     1       5.606  -1.661  -2.779  1.00  0.00     0.023 C 
ATOM     26  C   UNL     1       5.878  -1.994  -1.316  1.00  0.00     0.023 C 
ENDBRANCH  16  20
ENDBRANCH  12  14
ENDBRANCH   7  10
TORSDOF 4
