REMARK SMILES Cc1c[nH]c2ncc(C(=O)N[C@H]3[C@@H]4CN(C(=O)c5ccc6nc(N)n(C)c6c5)C[C@@H]43)cc12
REMARK SMILES IDX 12 1 13 2 14 3 15 4 29 5 30 6 11 7 9 8 10 9 8 11 2 12 3 13
REMARK SMILES IDX 32 14 4 15 31 16 5 17 6 18 7 19 1 20 16 22 17 23 18 24 19 25
REMARK SMILES IDX 28 26 20 27 27 28 21 29 25 30 22 31 23 32 26 33 24 34
REMARK H PARENT 11 10 4 21 24 35 24 36
ROOT
ATOM      1  C   UNL     1      -0.436   0.791  -0.529  1.00  0.00     0.093 C 
ATOM      2  C   UNL     1       0.665   1.795  -0.211  1.00  0.00     0.038 C 
ATOM      3  C   UNL     1       1.904   1.714  -1.091  1.00  0.00     0.126 C 
ATOM      4  N   UNL     1       2.506   0.416  -0.829  1.00  0.00    -0.338 N 
ATOM      5  C   UNL     1       1.769  -0.363   0.156  1.00  0.00     0.126 C 
ATOM      6  C   UNL     1       0.577   0.487   0.566  1.00  0.00     0.038 C 
ENDROOT
BRANCH   1   7
ATOM      7  N   UNL     1      -1.745   1.163  -0.002  1.00  0.00    -0.349 N 
ATOM      8  C   UNL     1      -2.709   0.160   0.353  1.00  0.00     0.253 C 
ATOM      9  O   UNL     1      -2.368  -1.055   0.347  1.00  0.00    -0.269 OA
ATOM     10  H   UNL     1      -1.959   2.177   0.140  1.00  0.00     0.164 HD
BRANCH   8  11
ATOM     11  C   UNL     1      -4.096   0.522   0.735  1.00  0.00     0.058 A 
ATOM     12  C   UNL     1      -6.814   3.090   0.513  1.00  0.00    -0.024 A 
ATOM     13  C   UNL     1      -8.023   2.756   1.119  1.00  0.00     0.088 A 
ATOM     14  C   UNL     1      -5.977   2.016   0.735  1.00  0.00     0.022 A 
ATOM     15  N   UNL     1      -7.939   1.538   1.705  1.00  0.00    -0.346 N 
ATOM     16  C   UNL     1      -4.668   1.756   0.343  1.00  0.00     0.027 A 
ATOM     17  C   UNL     1      -6.691   1.107   1.460  1.00  0.00     0.137 A 
ATOM     18  N   UNL     1      -6.171  -0.086   1.836  1.00  0.00    -0.238 NA
ATOM     19  C   UNL     1      -4.887  -0.391   1.485  1.00  0.00     0.127 A 
ATOM     20  C   UNL     1      -6.528   4.309  -0.303  1.00  0.00     0.047 C 
ATOM     21  H   UNL     1      -8.693   1.034   2.222  1.00  0.00     0.167 HD
ENDBRANCH   8  11
ENDBRANCH   1   7
BRANCH   4  22
ATOM     22  C   UNL     1       3.564  -0.125  -1.641  1.00  0.00     0.253 C 
ATOM     23  O   UNL     1       3.803   0.381  -2.772  1.00  0.00    -0.269 OA
BRANCH  22  24
ATOM     24  C   UNL     1       4.369  -1.276  -1.190  1.00  0.00     0.042 A 
ATOM     25  C   UNL     1       4.643  -2.339  -2.088  1.00  0.00     0.016 A 
ATOM     26  C   UNL     1       4.898  -1.309   0.120  1.00  0.00     0.042 A 
ATOM     27  C   UNL     1       5.409  -3.444  -1.677  1.00  0.00     0.031 A 
ATOM     28  C   UNL     1       5.659  -2.420   0.491  1.00  0.00     0.070 A 
ATOM     29  C   UNL     1       5.898  -3.449  -0.375  1.00  0.00     0.091 A 
ATOM     30  N   UNL     1       6.259  -2.692   1.664  1.00  0.00    -0.314 N 
ATOM     31  N   UNL     1       6.636  -4.407   0.216  1.00  0.00    -0.213 NA
ATOM     32  C   UNL     1       6.832  -3.907   1.463  1.00  0.00     0.200 A 
ATOM     33  C   UNL     1       6.250  -1.912   2.902  1.00  0.00     0.153 C 
BRANCH  32  34
ATOM     34  N   UNL     1       7.562  -4.616   2.466  1.00  0.00    -0.369 N 
ATOM     35  H   UNL     1       7.963  -5.555   2.251  1.00  0.00     0.159 HD
ATOM     36  H   UNL     1       7.704  -4.213   3.417  1.00  0.00     0.159 HD
ENDBRANCH  32  34
ENDBRANCH  22  24
ENDBRANCH   4  22
TORSDOF 5
