REMARK SMILES O=C(c1ccc2scnc2c1)N1CCC2(CCC(O)CC2)CC1
REMARK SMILES IDX 1 1 2 2 12 3 13 4 14 5 15 6 16 7 17 8 18 9 20 10 21 11 22 12
REMARK SMILES IDX 23 13 3 14 4 15 11 16 5 17 10 18 6 19 9 20 7 21 8 22 19 23
REMARK H PARENT 19 24
ROOT
ATOM      1  O   UNL     1       2.087   0.179  -3.982  1.00  0.00    -0.269 OA
ATOM      2  C   UNL     1       1.681  -0.298  -2.887  1.00  0.00     0.253 C 
ATOM      3  N   UNL     1       0.328  -0.784  -2.788  1.00  0.00    -0.339 N 
ATOM      4  C   UNL     1       0.042  -2.073  -2.147  1.00  0.00     0.120 C 
ATOM      5  C   UNL     1      -1.215  -1.987  -1.262  1.00  0.00     0.028 C 
ATOM      6  C   UNL     1      -2.314  -0.986  -1.775  1.00  0.00    -0.026 C 
ATOM      7  C   UNL     1      -2.243   0.380  -0.997  1.00  0.00     0.010 C 
ATOM      8  C   UNL     1      -3.330   0.570   0.080  1.00  0.00     0.032 C 
ATOM      9  C   UNL     1      -3.644  -0.727   0.842  1.00  0.00     0.114 C 
ATOM     10  C   UNL     1      -4.082  -1.865  -0.110  1.00  0.00     0.032 C 
ATOM     11  C   UNL     1      -3.721  -1.618  -1.590  1.00  0.00     0.010 C 
ATOM     12  C   UNL     1      -2.107  -0.728  -3.296  1.00  0.00     0.028 C 
ATOM     13  C   UNL     1      -0.716  -0.146  -3.599  1.00  0.00     0.120 C 
ENDROOT
BRANCH   2  14
ATOM     14  C   UNL     1       2.604  -0.325  -1.728  1.00  0.00     0.042 A 
ATOM     15  C   UNL     1       4.003  -0.409  -1.939  1.00  0.00     0.015 A 
ATOM     16  C   UNL     1       2.106  -0.230  -0.409  1.00  0.00     0.043 A 
ATOM     17  C   UNL     1       4.893  -0.423  -0.854  1.00  0.00     0.022 A 
ATOM     18  C   UNL     1       3.002  -0.246   0.659  1.00  0.00     0.082 A 
ATOM     19  C   UNL     1       4.363  -0.343   0.429  1.00  0.00     0.054 A 
ATOM     20  N   UNL     1       2.641  -0.166   1.965  1.00  0.00    -0.245 NA
ATOM     21  S   UNL     1       5.167  -0.332   1.900  1.00  0.00    -0.122 S 
ATOM     22  C   UNL     1       3.725  -0.203   2.778  1.00  0.00     0.176 A 
ENDBRANCH   2  14
BRANCH   9  23
ATOM     23  O   UNL     1      -2.527  -1.133   1.590  1.00  0.00    -0.393 OA
ATOM     24  H   UNL     1      -2.450  -0.507   2.357  1.00  0.00     0.210 HD
ENDBRANCH   9  23
TORSDOF 2
