REMARK SMILES CN(C)C[C@H](c1ccccc1)N(C)S(=O)(=O)c1csc2ccccc12
REMARK SMILES IDX 5 1 4 2 2 3 1 4 3 5 6 6 7 7 11 8 8 9 10 10 9 11 12 12 13 13
REMARK SMILES IDX 14 14 15 15 16 16 17 17 18 18 25 19 19 20 24 21 20 22 23 23
REMARK SMILES IDX 21 24 22 25
REMARK H PARENT
ROOT
ATOM      1  C   UNL     1      -0.025   0.809   0.634  1.00  0.00     0.117 C 
ENDROOT
BRANCH   1   2
ATOM      2  C   UNL     1      -0.647   1.142  -0.755  1.00  0.00     0.109 C 
BRANCH   2   3
ATOM      3  N   UNL     1      -2.109   0.896  -0.764  1.00  0.00    -0.307 NA
ATOM      4  C   UNL     1      -2.757   1.705  -1.809  1.00  0.00     0.105 C 
ATOM      5  C   UNL     1      -2.413  -0.528  -0.993  1.00  0.00     0.105 C 
ENDBRANCH   2   3
ENDBRANCH   1   2
BRANCH   1   6
ATOM      6  C   UNL     1      -0.733   1.508   1.784  1.00  0.00    -0.028 A 
ATOM      7  C   UNL     1      -1.127   2.861   1.710  1.00  0.00     0.005 A 
ATOM      8  C   UNL     1      -0.943   0.809   2.988  1.00  0.00     0.005 A 
ATOM      9  C   UNL     1      -1.745   3.479   2.801  1.00  0.00     0.000 A 
ATOM     10  C   UNL     1      -1.561   1.433   4.075  1.00  0.00     0.000 A 
ATOM     11  C   UNL     1      -1.964   2.766   3.981  1.00  0.00     0.000 A 
ENDBRANCH   1   6
BRANCH   1  12
ATOM     12  N   UNL     1       1.438   1.056   0.742  1.00  0.00    -0.192 NA
ATOM     13  C   UNL     1       1.940   2.244   0.035  1.00  0.00     0.125 C 
BRANCH  12  14
ATOM     14  S   UNL     1       2.401  -0.352   0.346  1.00  0.00     0.244 S 
ATOM     15  O   UNL     1       3.860   0.006   0.418  1.00  0.00    -0.207 OA
ATOM     16  O   UNL     1       2.153  -1.427   1.365  1.00  0.00    -0.207 OA
BRANCH  14  17
ATOM     17  C   UNL     1       2.062  -0.946  -1.285  1.00  0.00     0.101 A 
ATOM     18  C   UNL     1       2.698  -0.394  -2.398  1.00  0.00     0.087 A 
ATOM     19  C   UNL     1       1.143  -1.961  -1.632  1.00  0.00     0.013 A 
ATOM     20  S   UNL     1       2.128  -1.144  -3.798  1.00  0.00    -0.142 S 
ATOM     21  C   UNL     1       0.328  -2.718  -0.776  1.00  0.00     0.011 A 
ATOM     22  C   UNL     1       1.075  -2.177  -3.004  1.00  0.00     0.036 A 
ATOM     23  C   UNL     1      -0.538  -3.677  -1.327  1.00  0.00     0.001 A 
ATOM     24  C   UNL     1       0.223  -3.121  -3.571  1.00  0.00     0.019 A 
ATOM     25  C   UNL     1      -0.591  -3.878  -2.717  1.00  0.00     0.002 A 
ENDBRANCH  14  17
ENDBRANCH  12  14
ENDBRANCH   1  12
TORSDOF 6
