REMARK SMILES Cc1cc(F)c2nc(O)cc(C(=O)N3CC[C@@H](Nc4ccccc4)C3)c2c1
REMARK SMILES IDX 12 1 13 2 11 3 2 4 3 5 27 6 4 7 26 8 6 9 7 10 10 11 8 12
REMARK SMILES IDX 1 13 5 14 9 15 14 17 15 18 25 19 16 20 17 21 18 22 19 24
REMARK SMILES IDX 20 25 24 26 21 27 23 28 22 29
REMARK H PARENT 9 16 18 23
ROOT
ATOM      1  C   UNL     1      -0.777  -0.063  -0.675  1.00  0.00     0.254 C 
ATOM      2  O   UNL     1      -1.162  -0.382  -1.833  1.00  0.00    -0.269 OA
ENDROOT
BRANCH   1   3
ATOM      3  C   UNL     1      -1.726  -0.173   0.451  1.00  0.00     0.054 A 
ATOM      4  C   UNL     1      -4.451   2.273  -0.371  1.00  0.00    -0.047 A 
ATOM      5  C   UNL     1      -5.300   2.071   0.726  1.00  0.00     0.045 A 
ATOM      6  C   UNL     1      -3.255   1.546  -0.467  1.00  0.00     0.014 A 
ATOM      7  C   UNL     1      -4.974   1.133   1.708  1.00  0.00     0.149 A 
ATOM      8  C   UNL     1      -2.918   0.587   0.511  1.00  0.00     0.017 A 
ATOM      9  C   UNL     1      -3.791   0.393   1.610  1.00  0.00     0.111 A 
ATOM     10  N   UNL     1      -3.477  -0.507   2.579  1.00  0.00    -0.210 NA
ATOM     11  C   UNL     1      -1.446  -1.090   1.473  1.00  0.00     0.082 A 
ATOM     12  C   UNL     1      -2.338  -1.244   2.538  1.00  0.00     0.212 A 
ATOM     13  C   UNL     1      -4.782   3.316  -1.398  1.00  0.00     0.044 C 
ATOM     14  F   UNL     1      -5.809   0.952   2.763  1.00  0.00    -0.205 F 
BRANCH  12  15
ATOM     15  O   UNL     1      -2.072  -2.150   3.561  1.00  0.00    -0.493 OA
ATOM     16  H   UNL     1      -1.232  -2.717   3.562  1.00  0.00     0.295 HD
ENDBRANCH  12  15
ENDBRANCH   1   3
BRANCH   1  17
ATOM     17  N   UNL     1       0.575   0.383  -0.469  1.00  0.00    -0.336 N 
ATOM     18  C   UNL     1       1.033   1.037   0.748  1.00  0.00     0.122 C 
ATOM     19  C   UNL     1       1.586   0.318  -1.509  1.00  0.00     0.144 C 
ATOM     20  C   UNL     1       2.510   1.357   0.535  1.00  0.00     0.048 C 
ATOM     21  C   UNL     1       2.822   1.005  -0.927  1.00  0.00     0.100 C 
BRANCH  21  22
ATOM     22  N   UNL     1       4.044   0.198  -1.070  1.00  0.00    -0.380 N 
ATOM     23  H   UNL     1       4.808   0.634  -1.635  1.00  0.00     0.160 HD
BRANCH  22  24
ATOM     24  C   UNL     1       4.300  -1.115  -0.518  1.00  0.00     0.034 A 
ATOM     25  C   UNL     1       3.350  -1.820   0.250  1.00  0.00     0.025 A 
ATOM     26  C   UNL     1       5.549  -1.716  -0.758  1.00  0.00     0.025 A 
ATOM     27  C   UNL     1       3.648  -3.087   0.759  1.00  0.00     0.002 A 
ATOM     28  C   UNL     1       5.843  -2.983  -0.246  1.00  0.00     0.002 A 
ATOM     29  C   UNL     1       4.893  -3.668   0.512  1.00  0.00     0.000 A 
ENDBRANCH  22  24
ENDBRANCH  21  22
ENDBRANCH   1  17
TORSDOF 5
