REMARK SMILES Cc1nc(N2CC[C@H](CO)C2)c2cnn(-c3ccccc3)c2n1
REMARK SMILES IDX 5 1 6 2 7 3 8 4 11 5 4 6 2 7 3 8 23 9 22 10 12 11 15 12
REMARK SMILES IDX 13 13 14 14 1 15 16 16 17 17 21 18 18 19 20 20 19 21 9 22
REMARK SMILES IDX 10 23
REMARK H PARENT 10 24
ROOT
ATOM      1  N   UNL     1       0.473   0.051   2.377  1.00  0.00    -0.356 N 
ATOM      2  C   UNL     1       0.955   1.310   2.924  1.00  0.00     0.118 C 
ATOM      3  C   UNL     1       1.375   1.002   4.354  1.00  0.00     0.029 C 
ATOM      4  C   UNL     1       0.646  -0.295   4.723  1.00  0.00     0.036 C 
ATOM      5  C   UNL     1       0.350  -0.985   3.389  1.00  0.00     0.124 C 
ENDROOT
BRANCH   1   6
ATOM      6  C   UNL     1      -0.149  -0.058   1.087  1.00  0.00     0.143 A 
ATOM      7  C   UNL     1      -1.991  -0.791  -0.255  1.00  0.00     0.130 A 
ATOM      8  N   UNL     1      -1.367  -0.665   0.960  1.00  0.00    -0.215 NA
ATOM      9  N   UNL     1      -1.407  -0.289  -1.384  1.00  0.00    -0.213 NA
ATOM     10  C   UNL     1      -0.206   0.328  -1.268  1.00  0.00     0.168 A 
ATOM     11  C   UNL     1       0.442   0.435  -0.077  1.00  0.00     0.082 A 
ATOM     12  N   UNL     1       0.574   0.794  -2.262  1.00  0.00    -0.215 N 
ATOM     13  C   UNL     1       1.675   0.976  -0.386  1.00  0.00     0.150 A 
ATOM     14  N   UNL     1       1.728   1.181  -1.725  1.00  0.00    -0.174 NA
ATOM     15  C   UNL     1      -3.335  -1.433  -0.337  1.00  0.00     0.090 C 
BRANCH  12  16
ATOM     16  C   UNL     1       0.294   0.835  -3.674  1.00  0.00     0.067 A 
ATOM     17  C   UNL     1      -1.021   0.993  -4.152  1.00  0.00     0.028 A 
ATOM     18  C   UNL     1       1.349   0.750  -4.599  1.00  0.00     0.028 A 
ATOM     19  C   UNL     1      -1.272   1.041  -5.526  1.00  0.00     0.002 A 
ATOM     20  C   UNL     1       1.092   0.797  -5.973  1.00  0.00     0.002 A 
ATOM     21  C   UNL     1      -0.218   0.940  -6.436  1.00  0.00     0.000 A 
ENDBRANCH  12  16
ENDBRANCH   1   6
BRANCH   4  22
ATOM     22  C   UNL     1       1.453  -1.185   5.678  1.00  0.00     0.161 C 
BRANCH  22  23
ATOM     23  O   UNL     1       1.653  -0.517   6.893  1.00  0.00    -0.396 OA
ATOM     24  H   UNL     1       2.177  -1.136   7.465  1.00  0.00     0.210 HD
ENDBRANCH  22  23
ENDBRANCH   4  22
TORSDOF 4
