REMARK SMILES O=C(NCCc1csc(-c2ccccc2)n1)c1ccc(F)c(F)c1
REMARK SMILES IDX 4 1 3 2 1 3 2 4 17 6 18 7 24 8 19 9 22 10 20 11 23 12 21 13
REMARK SMILES IDX 5 14 6 15 7 16 16 17 8 18 9 19 10 20 11 21 15 22 12 23 14 24
REMARK SMILES IDX 13 25
REMARK H PARENT 3 5
ROOT
ATOM      1  C   UNL     1      -2.491  -0.463  -0.836  1.00  0.00     0.122 C 
ENDROOT
BRANCH   1   2
ATOM      2  N   UNL     1      -1.288  -1.120  -1.347  1.00  0.00    -0.352 N 
ATOM      3  O   UNL     1      -1.653  -0.468  -3.559  1.00  0.00    -0.269 OA
ATOM      4  C   UNL     1      -0.920  -1.083  -2.737  1.00  0.00     0.251 C 
ATOM      5  H   UNL     1      -0.665  -1.586  -0.652  1.00  0.00     0.163 HD
BRANCH   4   6
ATOM      6  C   UNL     1       0.320  -1.736  -3.221  1.00  0.00     0.042 A 
ATOM      7  C   UNL     1       0.958  -1.255  -4.379  1.00  0.00     0.017 A 
ATOM      8  C   UNL     1       0.869  -2.847  -2.553  1.00  0.00     0.056 A 
ATOM      9  C   UNL     1       2.129  -1.859  -4.846  1.00  0.00     0.043 A 
ATOM     10  C   UNL     1       2.041  -3.449  -3.025  1.00  0.00     0.159 A 
ATOM     11  C   UNL     1       2.672  -2.953  -4.169  1.00  0.00     0.158 A 
ATOM     12  F   UNL     1       2.559  -4.520  -2.374  1.00  0.00    -0.204 F 
ATOM     13  F   UNL     1       3.808  -3.536  -4.627  1.00  0.00    -0.204 F 
ENDBRANCH   4   6
ENDBRANCH   1   2
BRANCH   1  14
ATOM     14  C   UNL     1      -2.321   1.061  -0.801  1.00  0.00     0.078 C 
BRANCH  14  15
ATOM     15  C   UNL     1      -1.161   1.459   0.063  1.00  0.00     0.054 A 
ATOM     16  C   UNL     1       0.117   1.685  -0.440  1.00  0.00     0.091 A 
ATOM     17  N   UNL     1      -1.278   1.558   1.415  1.00  0.00    -0.241 NA
ATOM     18  S   UNL     1       1.119   2.035   0.862  1.00  0.00    -0.122 S 
ATOM     19  C   UNL     1      -0.106   1.879   2.009  1.00  0.00     0.123 A 
BRANCH  19  20
ATOM     20  C   UNL     1       0.049   2.049   3.472  1.00  0.00     0.010 A 
ATOM     21  C   UNL     1       1.294   2.390   4.035  1.00  0.00     0.011 A 
ATOM     22  C   UNL     1      -1.056   1.868   4.325  1.00  0.00     0.011 A 
ATOM     23  C   UNL     1       1.427   2.546   5.418  1.00  0.00     0.001 A 
ATOM     24  C   UNL     1      -0.917   2.025   5.708  1.00  0.00     0.001 A 
ATOM     25  C   UNL     1       0.323   2.364   6.254  1.00  0.00     0.000 A 
ENDBRANCH  19  20
ENDBRANCH  14  15
ENDBRANCH   1  14
TORSDOF 5
