REMARK SMILES O=C1CC[C@@H](NC(=O)c2cccnc2F)[C@H](c2ccccc2)N1
REMARK SMILES IDX 8 1 7 2 6 3 9 5 10 6 14 7 11 8 13 9 12 10 15 11 5 12 4 13
REMARK SMILES IDX 16 14 3 15 23 16 2 17 1 18 17 20 18 21 22 22 19 23 21 24
REMARK SMILES IDX 20 25
REMARK H PARENT 6 4 23 19
ROOT
ATOM      1  O   UNL     1      -0.137   0.542  -2.769  1.00  0.00    -0.269 OA
ATOM      2  C   UNL     1       0.134  -0.684  -2.642  1.00  0.00     0.256 C 
ATOM      3  N   UNL     1       1.056  -1.110  -1.626  1.00  0.00    -0.347 N 
ATOM      4  H   UNL     1       1.429  -2.086  -1.659  1.00  0.00     0.164 HD
ENDROOT
BRANCH   2   5
ATOM      5  C   UNL     1      -0.487  -1.660  -3.566  1.00  0.00     0.094 A 
ATOM      6  C   UNL     1      -0.780  -1.283  -4.886  1.00  0.00     0.020 A 
ATOM      7  C   UNL     1      -0.829  -2.962  -3.150  1.00  0.00     0.225 A 
ATOM      8  C   UNL     1      -1.368  -2.196  -5.764  1.00  0.00     0.021 A 
ATOM      9  N   UNL     1      -1.406  -3.828  -4.026  1.00  0.00    -0.228 NA
ATOM     10  C   UNL     1      -1.672  -3.479  -5.312  1.00  0.00     0.114 A 
ATOM     11  F   UNL     1      -0.640  -3.361  -1.867  1.00  0.00    -0.184 F 
ENDBRANCH   2   5
BRANCH   3  12
ATOM     12  C   UNL     1       1.354  -0.295  -0.444  1.00  0.00     0.109 C 
ATOM     13  C   UNL     1       2.845  -0.486  -0.030  1.00  0.00     0.037 C 
ATOM     14  C   UNL     1       0.330  -0.634   0.682  1.00  0.00     0.134 C 
ATOM     15  C   UNL     1       3.039  -1.387   1.195  1.00  0.00     0.102 C 
ATOM     16  N   UNL     1       0.890  -0.373   2.011  1.00  0.00    -0.347 N 
ATOM     17  C   UNL     1       2.195  -0.865   2.312  1.00  0.00     0.220 C 
ATOM     18  O   UNL     1       2.619  -0.869   3.498  1.00  0.00    -0.275 OA
ATOM     19  H   UNL     1       0.302   0.028   2.776  1.00  0.00     0.164 HD
BRANCH  14  20
ATOM     20  C   UNL     1      -0.967   0.125   0.484  1.00  0.00    -0.024 A 
ATOM     21  C   UNL     1      -1.031   1.511   0.718  1.00  0.00     0.006 A 
ATOM     22  C   UNL     1      -2.111  -0.541   0.007  1.00  0.00     0.006 A 
ATOM     23  C   UNL     1      -2.219   2.212   0.493  1.00  0.00     0.000 A 
ATOM     24  C   UNL     1      -3.297   0.165  -0.218  1.00  0.00     0.000 A 
ATOM     25  C   UNL     1      -3.351   1.539   0.026  1.00  0.00     0.000 A 
ENDBRANCH  14  20
ENDBRANCH   3  12
TORSDOF 3
