REMARK SMILES CN(C)CCc1ccc(CNC(=O)Cc2ccc3sccc3c2)cc1
REMARK SMILES IDX 6 1 7 2 8 3 9 4 24 5 25 6 5 7 4 8 2 9 1 10 3 11 10 12 11 13
REMARK SMILES IDX 12 14 13 15 14 17 15 18 16 19 23 20 17 21 22 22 18 23 21 24
REMARK SMILES IDX 19 25 20 26
REMARK H PARENT 11 16
ROOT
ATOM      1  C   UNL     1      -3.146   0.895  -0.667  1.00  0.00    -0.047 A 
ATOM      2  C   UNL     1      -2.924   0.203  -1.868  1.00  0.00     0.004 A 
ATOM      3  C   UNL     1      -1.661   0.216  -2.469  1.00  0.00     0.006 A 
ATOM      4  C   UNL     1      -0.601   0.915  -1.872  1.00  0.00    -0.029 A 
ATOM      5  C   UNL     1      -0.820   1.601  -0.667  1.00  0.00     0.006 A 
ATOM      6  C   UNL     1      -2.083   1.585  -0.064  1.00  0.00     0.004 A 
ENDROOT
BRANCH   1   7
ATOM      7  C   UNL     1      -4.494   0.839   0.001  1.00  0.00     0.051 C 
BRANCH   7   8
ATOM      8  C   UNL     1      -4.607  -0.406   0.890  1.00  0.00     0.088 C 
BRANCH   8   9
ATOM      9  N   UNL     1      -5.966  -0.507   1.465  1.00  0.00    -0.309 NA
ATOM     10  C   UNL     1      -6.314  -1.915   1.718  1.00  0.00     0.104 C 
ATOM     11  C   UNL     1      -6.068   0.256   2.721  1.00  0.00     0.104 C 
ENDBRANCH   8   9
ENDBRANCH   7   8
ENDBRANCH   1   7
BRANCH   4  12
ATOM     12  C   UNL     1       0.765   0.919  -2.506  1.00  0.00     0.151 C 
BRANCH  12  13
ATOM     13  N   UNL     1       1.738   0.256  -1.641  1.00  0.00    -0.352 N 
ATOM     14  C   UNL     1       1.675  -1.144  -1.336  1.00  0.00     0.224 C 
ATOM     15  O   UNL     1       0.735  -1.851  -1.785  1.00  0.00    -0.275 OA
ATOM     16  H   UNL     1       2.519   0.828  -1.244  1.00  0.00     0.163 HD
BRANCH  14  17
ATOM     17  C   UNL     1       2.751  -1.787  -0.515  1.00  0.00     0.135 C 
BRANCH  17  18
ATOM     18  C   UNL     1       3.762  -2.440  -1.416  1.00  0.00    -0.038 A 
ATOM     19  C   UNL     1       3.652  -3.815  -1.731  1.00  0.00     0.006 A 
ATOM     20  C   UNL     1       4.793  -1.668  -1.996  1.00  0.00     0.013 A 
ATOM     21  C   UNL     1       4.570  -4.425  -2.600  1.00  0.00     0.020 A 
ATOM     22  C   UNL     1       5.698  -2.288  -2.862  1.00  0.00    -0.007 A 
ATOM     23  C   UNL     1       5.579  -3.639  -3.147  1.00  0.00     0.034 A 
ATOM     24  C   UNL     1       6.770  -1.671  -3.517  1.00  0.00     0.020 A 
ATOM     25  S   UNL     1       6.795  -4.094  -4.212  1.00  0.00    -0.144 S 
ATOM     26  C   UNL     1       7.490  -2.555  -4.319  1.00  0.00     0.066 A 
ENDBRANCH  17  18
ENDBRANCH  14  17
ENDBRANCH  12  13
ENDBRANCH   4  12
TORSDOF 7
