REMARK SMILES CC1(CC(=O)NCc2ccc(-n3cncn3)cc2)OCCO1
REMARK SMILES IDX 4 1 5 2 6 3 3 5 2 6 19 7 22 8 20 9 21 10 1 11 7 12 8 13 9 14
REMARK SMILES IDX 18 15 10 16 17 17 11 18 12 19 13 20 16 21 14 22 15 23
REMARK H PARENT 6 4
ROOT
ATOM      1  C   UNL     1       0.761  -1.466   2.332  1.00  0.00     0.225 C 
ATOM      2  O   UNL     1       1.446  -2.276   1.651  1.00  0.00    -0.275 OA
ATOM      3  N   UNL     1       1.183  -0.102   2.473  1.00  0.00    -0.352 N 
ATOM      4  H   UNL     1       0.649   0.533   3.108  1.00  0.00     0.163 HD
ENDROOT
BRANCH   1   5
ATOM      5  C   UNL     1      -0.523  -1.929   2.959  1.00  0.00     0.165 C 
BRANCH   5   6
ATOM      6  C   UNL     1      -1.712  -1.891   1.974  1.00  0.00     0.174 C 
ATOM      7  O   UNL     1      -1.399  -2.664   0.833  1.00  0.00    -0.347 OA
ATOM      8  O   UNL     1      -2.852  -2.399   2.635  1.00  0.00    -0.347 OA
ATOM      9  C   UNL     1      -2.434  -3.585   0.697  1.00  0.00     0.192 C 
ATOM     10  C   UNL     1      -3.154  -3.604   2.008  1.00  0.00     0.192 C 
ATOM     11  C   UNL     1      -2.016  -0.454   1.529  1.00  0.00     0.076 C 
ENDBRANCH   5   6
ENDBRANCH   1   5
BRANCH   3  12
ATOM     12  C   UNL     1       2.267   0.467   1.677  1.00  0.00     0.151 C 
BRANCH  12  13
ATOM     13  C   UNL     1       1.798   0.703   0.268  1.00  0.00    -0.029 A 
ATOM     14  C   UNL     1       0.953   1.784  -0.017  1.00  0.00     0.008 A 
ATOM     15  C   UNL     1       2.146  -0.186  -0.759  1.00  0.00     0.008 A 
ATOM     16  C   UNL     1       0.469   1.979  -1.313  1.00  0.00     0.029 A 
ATOM     17  C   UNL     1       1.663   0.008  -2.056  1.00  0.00     0.029 A 
ATOM     18  C   UNL     1       0.814   1.093  -2.350  1.00  0.00     0.066 A 
BRANCH  18  19
ATOM     19  N   UNL     1       0.301   1.308  -3.682  1.00  0.00    -0.221 N 
ATOM     20  C   UNL     1       0.406   0.500  -4.756  1.00  0.00     0.225 A 
ATOM     21  N   UNL     1      -0.385   2.376  -4.048  1.00  0.00    -0.155 NA
ATOM     22  N   UNL     1      -0.207   1.033  -5.831  1.00  0.00    -0.223 NA
ATOM     23  C   UNL     1      -0.684   2.199  -5.348  1.00  0.00     0.246 A 
ENDBRANCH  18  19
ENDBRANCH  12  13
ENDBRANCH   3  12
TORSDOF 5
