REMARK SMILES CC1(Cn2cc(C(=O)N[C@@H]3C[C@H]3c3cccc(F)c3)nn2)COC1
REMARK SMILES IDX 4 1 5 2 6 3 20 4 21 5 3 6 2 7 22 8 24 9 23 10 1 11 7 12 8 13
REMARK SMILES IDX 9 14 10 16 11 17 12 18 13 19 14 20 19 21 15 22 17 23 16 24
REMARK SMILES IDX 18 25
REMARK H PARENT 9 15
ROOT
ATOM      1  N   UNL     1      -3.153  -0.615   0.078  1.00  0.00    -0.251 N 
ATOM      2  C   UNL     1      -1.848  -0.920   0.175  1.00  0.00     0.145 A 
ATOM      3  C   UNL     1      -1.201  -0.121  -0.745  1.00  0.00     0.170 A 
ATOM      4  N   UNL     1      -2.124   0.642  -1.366  1.00  0.00    -0.125 NA
ATOM      5  N   UNL     1      -3.300   0.322  -0.846  1.00  0.00    -0.067 NA
ENDROOT
BRANCH   1   6
ATOM      6  C   UNL     1      -4.246  -1.167   0.874  1.00  0.00     0.157 C 
BRANCH   6   7
ATOM      7  C   UNL     1      -4.425  -0.390   2.197  1.00  0.00     0.034 C 
ATOM      8  C   UNL     1      -5.392  -1.056   3.161  1.00  0.00     0.171 C 
ATOM      9  C   UNL     1      -3.408  -0.723   3.275  1.00  0.00     0.171 C 
ATOM     10  O   UNL     1      -4.380  -1.316   4.105  1.00  0.00    -0.380 OA
ATOM     11  C   UNL     1      -4.681   1.117   2.023  1.00  0.00     0.018 C 
ENDBRANCH   6   7
ENDBRANCH   1   6
BRANCH   3  12
ATOM     12  C   UNL     1       0.242  -0.062  -1.030  1.00  0.00     0.273 C 
ATOM     13  O   UNL     1       0.663   0.763  -1.886  1.00  0.00    -0.267 OA
ATOM     14  N   UNL     1       1.169  -0.921  -0.350  1.00  0.00    -0.347 N 
ATOM     15  H   UNL     1       0.818  -1.670   0.287  1.00  0.00     0.164 HD
BRANCH  14  16
ATOM     16  C   UNL     1       2.599  -0.869  -0.636  1.00  0.00     0.090 C 
ATOM     17  C   UNL     1       3.476  -1.069   0.597  1.00  0.00     0.036 C 
ATOM     18  C   UNL     1       3.293   0.327   0.007  1.00  0.00     0.044 C 
BRANCH  18  19
ATOM     19  C   UNL     1       4.479   0.919  -0.735  1.00  0.00    -0.040 A 
ATOM     20  C   UNL     1       5.354   0.160  -1.544  1.00  0.00     0.004 A 
ATOM     21  C   UNL     1       4.708   2.300  -0.606  1.00  0.00     0.043 A 
ATOM     22  C   UNL     1       6.424   0.776  -2.200  1.00  0.00     0.003 A 
ATOM     23  C   UNL     1       5.780   2.910  -1.264  1.00  0.00     0.123 A 
ATOM     24  C   UNL     1       6.637   2.148  -2.061  1.00  0.00     0.039 A 
ATOM     25  F   UNL     1       5.988   4.243  -1.129  1.00  0.00    -0.207 F 
ENDBRANCH  18  19
ENDBRANCH  14  16
ENDBRANCH   3  12
TORSDOF 5
