REMARK SMILES CO[C@@]1(c2nnc3n2CCN(C(=O)OC(C)(C)C)C3)CCOC1
REMARK SMILES IDX 4 1 5 2 6 3 7 4 19 5 11 6 10 7 9 8 8 9 3 10 20 11 23 12
REMARK SMILES IDX 21 13 22 14 2 15 1 16 12 17 13 18 14 19 15 20 16 21 17 22
REMARK SMILES IDX 18 23
REMARK H PARENT
ROOT
ATOM      1  C   UNL     1       1.768   1.207   0.008  1.00  0.00     0.167 A 
ATOM      2  N   UNL     1       1.303   2.079   0.930  1.00  0.00    -0.132 NA
ATOM      3  N   UNL     1       0.058   1.726   1.219  1.00  0.00    -0.133 NA
ATOM      4  C   UNL     1      -0.214   0.638   0.476  1.00  0.00     0.152 A 
ATOM      5  C   UNL     1      -1.498  -0.130   0.517  1.00  0.00     0.200 C 
ATOM      6  N   UNL     1      -1.427  -1.331  -0.337  1.00  0.00    -0.299 N 
ATOM      7  C   UNL     1      -0.525  -1.354  -1.505  1.00  0.00     0.145 C 
ATOM      8  C   UNL     1       0.890  -0.921  -1.108  1.00  0.00     0.147 C 
ATOM      9  N   UNL     1       0.822   0.294  -0.300  1.00  0.00    -0.309 N 
ENDROOT
BRANCH   1  10
ATOM     10  C   UNL     1       3.199   1.216  -0.528  1.00  0.00     0.153 C 
ATOM     11  C   UNL     1       3.996   0.135   0.167  1.00  0.00     0.075 C 
ATOM     12  C   UNL     1       3.990   2.456  -0.091  1.00  0.00     0.204 C 
ATOM     13  C   UNL     1       4.570   0.836   1.386  1.00  0.00     0.164 C 
ATOM     14  O   UNL     1       4.517   2.231   1.195  1.00  0.00    -0.378 OA
BRANCH  10  15
ATOM     15  O   UNL     1       3.252   1.004  -1.935  1.00  0.00    -0.368 OA
ATOM     16  C   UNL     1       2.632   2.049  -2.663  1.00  0.00     0.196 C 
ENDBRANCH  10  15
ENDBRANCH   1  10
BRANCH   6  17
ATOM     17  C   UNL     1      -2.439  -2.345  -0.179  1.00  0.00     0.410 C 
ATOM     18  O   UNL     1      -2.458  -3.345  -0.948  1.00  0.00    -0.224 OA
BRANCH  17  19
ATOM     19  O   UNL     1      -3.401  -2.208   0.837  1.00  0.00    -0.444 OA
BRANCH  19  20
ATOM     20  C   UNL     1      -4.477  -3.115   1.119  1.00  0.00     0.106 C 
ATOM     21  C   UNL     1      -5.251  -2.540   2.316  1.00  0.00     0.056 C 
ATOM     22  C   UNL     1      -3.933  -4.505   1.501  1.00  0.00     0.056 C 
ATOM     23  C   UNL     1      -5.431  -3.217  -0.087  1.00  0.00     0.056 C 
ENDBRANCH  19  20
ENDBRANCH  17  19
ENDBRANCH   6  17
TORSDOF 5
