REMARK SMILES N#Cc1ccsc1S(=O)(=O)Nc1cccc2c1NC(=O)C2
REMARK SMILES IDX 11 1 8 3 9 4 10 5 7 6 1 7 2 8 3 9 4 10 5 11 6 12 12 13 13 14
REMARK SMILES IDX 17 15 14 16 18 17 16 18 15 19 19 20 21 21 20 22
REMARK H PARENT 11 2 18 23
ROOT
ATOM      1  N   UNL     1       0.896   0.489   1.721  1.00  0.00    -0.277 N 
ATOM      2  H   UNL     1       1.755   0.377   2.301  1.00  0.00     0.180 HD
ENDROOT
BRANCH   1   3
ATOM      3  S   UNL     1      -0.616   0.208   2.527  1.00  0.00     0.272 S 
ATOM      4  O   UNL     1      -1.419   1.479   2.525  1.00  0.00    -0.200 OA
ATOM      5  O   UNL     1      -0.347  -0.204   3.946  1.00  0.00    -0.200 OA
BRANCH   3   6
ATOM      6  C   UNL     1      -1.496  -1.084   1.720  1.00  0.00     0.158 A 
ATOM      7  N   UNL     1      -4.542   0.136   3.119  1.00  0.00    -0.192 NA
ATOM      8  C   UNL     1      -3.795  -0.513   2.519  1.00  0.00     0.101 C 
ATOM      9  C   UNL     1      -2.866  -1.320   1.773  1.00  0.00     0.083 A 
ATOM     10  C   UNL     1      -3.264  -2.439   1.030  1.00  0.00     0.032 A 
ATOM     11  C   UNL     1      -2.211  -3.087   0.397  1.00  0.00     0.068 A 
ATOM     12  S   UNL     1      -0.787  -2.268   0.763  1.00  0.00    -0.129 S 
ENDBRANCH   3   6
ENDBRANCH   1   3
BRANCH   1  13
ATOM     13  C   UNL     1       1.012   0.813   0.322  1.00  0.00     0.073 A 
ATOM     14  C   UNL     1      -0.117   1.129  -0.470  1.00  0.00     0.029 A 
ATOM     15  C   UNL     1       2.268   0.829  -0.310  1.00  0.00     0.069 A 
ATOM     16  C   UNL     1       0.025   1.440  -1.835  1.00  0.00     0.003 A 
ATOM     17  N   UNL     1       3.526   0.534   0.277  1.00  0.00    -0.324 N 
ATOM     18  C   UNL     1       2.400   1.136  -1.651  1.00  0.00    -0.013 A 
ATOM     19  C   UNL     1       1.291   1.444  -2.435  1.00  0.00     0.006 A 
ATOM     20  C   UNL     1       4.466   0.677  -0.782  1.00  0.00     0.228 C 
ATOM     21  C   UNL     1       3.830   1.070  -2.079  1.00  0.00     0.138 C 
ATOM     22  O   UNL     1       5.701   0.487  -0.630  1.00  0.00    -0.274 OA
ATOM     23  H   UNL     1       3.737   0.248   1.258  1.00  0.00     0.170 HD
ENDBRANCH   1  13
TORSDOF 3
