REMARK SMILES O=C(N[C@H]1C[C@H]2CNC[C@H]2C1)c1ccc(OCC2CCCCC2)cc1
REMARK SMILES IDX 12 1 13 2 14 3 15 4 24 5 25 6 2 7 1 8 3 9 4 11 11 12 5 13
REMARK SMILES IDX 10 14 6 15 9 16 7 17 8 18 16 20 17 21 18 22 19 23 23 24
REMARK SMILES IDX 20 25 22 26 21 27
REMARK H PARENT 3 10 8 19
ROOT
ATOM      1  C   UNL     1      -2.054   0.407   0.108  1.00  0.00     0.040 A 
ATOM      2  C   UNL     1      -2.564   0.981  -1.069  1.00  0.00     0.017 A 
ATOM      3  C   UNL     1      -2.124   0.544  -2.321  1.00  0.00     0.047 A 
ATOM      4  C   UNL     1      -1.173  -0.476  -2.426  1.00  0.00     0.119 A 
ATOM      5  C   UNL     1      -0.675  -1.071  -1.251  1.00  0.00     0.047 A 
ATOM      6  C   UNL     1      -1.112  -0.633   0.002  1.00  0.00     0.017 A 
ENDROOT
BRANCH   1   7
ATOM      7  C   UNL     1      -2.527   0.877   1.431  1.00  0.00     0.251 C 
ATOM      8  O   UNL     1      -3.652   1.441   1.522  1.00  0.00    -0.269 OA
ATOM      9  N   UNL     1      -1.719   0.712   2.607  1.00  0.00    -0.349 N 
ATOM     10  H   UNL     1      -0.705   0.490   2.487  1.00  0.00     0.164 HD
BRANCH   9  11
ATOM     11  C   UNL     1      -2.254   0.942   3.955  1.00  0.00     0.083 C 
ATOM     12  C   UNL     1      -1.150   0.880   5.012  1.00  0.00     0.030 C 
ATOM     13  C   UNL     1      -3.223  -0.172   4.346  1.00  0.00     0.030 C 
ATOM     14  C   UNL     1      -1.097  -0.574   5.501  1.00  0.00     0.009 C 
ATOM     15  C   UNL     1      -2.379  -1.244   5.040  1.00  0.00     0.009 C 
ATOM     16  C   UNL     1       0.037  -1.398   4.881  1.00  0.00     0.085 C 
ATOM     17  C   UNL     1      -1.927  -2.366   4.104  1.00  0.00     0.085 C 
ATOM     18  N   UNL     1      -0.532  -2.660   4.414  1.00  0.00    -0.316 NA
ATOM     19  H   UNL     1      -0.519  -3.333   5.218  1.00  0.00     0.122 HD
ENDBRANCH   9  11
ENDBRANCH   1   7
BRANCH   4  20
ATOM     20  O   UNL     1      -0.762  -0.868  -3.711  1.00  0.00    -0.493 OA
BRANCH  20  21
ATOM     21  C   UNL     1       0.296  -1.782  -4.002  1.00  0.00     0.233 C 
BRANCH  21  22
ATOM     22  C   UNL     1       1.674  -1.142  -3.747  1.00  0.00     0.027 C 
ATOM     23  C   UNL     1       2.794  -2.171  -3.998  1.00  0.00     0.007 C 
ATOM     24  C   UNL     1       1.878   0.102  -4.637  1.00  0.00     0.007 C 
ATOM     25  C   UNL     1       4.177  -1.547  -3.773  1.00  0.00     0.000 C 
ATOM     26  C   UNL     1       3.263   0.720  -4.412  1.00  0.00     0.000 C 
ATOM     27  C   UNL     1       4.373  -0.309  -4.657  1.00  0.00     0.000 C 
ENDBRANCH  21  22
ENDBRANCH  20  21
ENDBRANCH   4  20
TORSDOF 5
