REMARK SMILES O=C(Nc1cccc(OCCF)c1)c1ccc(Nc2ncccn2)cc1
REMARK SMILES IDX 4 1 5 2 6 3 7 4 8 5 13 6 3 7 1 8 2 9 14 11 15 12 26 13 16 14
REMARK SMILES IDX 25 15 17 16 18 17 19 19 20 20 24 21 21 22 23 23 22 24 9 25
REMARK SMILES IDX 10 26 11 27 12 28
REMARK H PARENT 3 10 18 18
ROOT
ATOM      1  C   UNL     1       2.779   0.681  -0.943  1.00  0.00     0.045 A 
ATOM      2  C   UNL     1       3.839   0.896  -1.835  1.00  0.00     0.026 A 
ATOM      3  C   UNL     1       5.083   1.320  -1.364  1.00  0.00     0.006 A 
ATOM      4  C   UNL     1       5.278   1.550  -0.000  1.00  0.00     0.046 A 
ATOM      5  C   UNL     1       4.217   1.368   0.908  1.00  0.00     0.121 A 
ATOM      6  C   UNL     1       2.974   0.935   0.427  1.00  0.00     0.072 A 
ENDROOT
BRANCH   1   7
ATOM      7  N   UNL     1       1.501   0.262  -1.453  1.00  0.00    -0.322 N 
ATOM      8  O   UNL     1       0.990  -1.267   0.238  1.00  0.00    -0.269 OA
ATOM      9  C   UNL     1       0.573  -0.548  -0.711  1.00  0.00     0.255 C 
ATOM     10  H   UNL     1       1.286   0.460  -2.456  1.00  0.00     0.170 HD
BRANCH   9  11
ATOM     11  C   UNL     1      -0.864  -0.589  -1.080  1.00  0.00     0.040 A 
ATOM     12  C   UNL     1      -1.443   0.436  -1.849  1.00  0.00     0.016 A 
ATOM     13  C   UNL     1      -1.674  -1.655  -0.650  1.00  0.00     0.016 A 
ATOM     14  C   UNL     1      -2.800   0.391  -2.184  1.00  0.00     0.027 A 
ATOM     15  C   UNL     1      -3.030  -1.698  -0.986  1.00  0.00     0.027 A 
ATOM     16  C   UNL     1      -3.608  -0.664  -1.742  1.00  0.00     0.041 A 
BRANCH  16  17
ATOM     17  N   UNL     1      -4.994  -0.698  -2.122  1.00  0.00    -0.324 N 
ATOM     18  H   UNL     1      -5.267  -0.257  -3.029  1.00  0.00     0.170 HD
BRANCH  17  19
ATOM     19  C   UNL     1      -6.048  -1.199  -1.286  1.00  0.00     0.227 A 
ATOM     20  N   UNL     1      -7.287  -1.394  -1.815  1.00  0.00    -0.221 NA
ATOM     21  N   UNL     1      -5.838  -1.433   0.039  1.00  0.00    -0.221 NA
ATOM     22  C   UNL     1      -8.315  -1.839  -1.046  1.00  0.00     0.117 A 
ATOM     23  C   UNL     1      -6.840  -1.880   0.840  1.00  0.00     0.117 A 
ATOM     24  C   UNL     1      -8.110  -2.096   0.308  1.00  0.00     0.040 A 
ENDBRANCH  17  19
ENDBRANCH  16  17
ENDBRANCH   9  11
ENDBRANCH   1   7
BRANCH   5  25
ATOM     25  O   UNL     1       4.346   1.594   2.289  1.00  0.00    -0.491 OA
BRANCH  25  26
ATOM     26  C   UNL     1       5.478   2.167   2.944  1.00  0.00     0.263 C 
BRANCH  26  27
ATOM     27  C   UNL     1       5.456   3.690   2.842  1.00  0.00     0.256 C 
ATOM     28  F   UNL     1       5.607   4.098   1.530  1.00  0.00    -0.247 F 
ENDBRANCH  26  27
ENDBRANCH  25  26
ENDBRANCH   5  25
TORSDOF 7
