REMARK SMILES c1ccc(Oc2ccnc(N[C@@H]3CC[C@@H]4OCC[C@@H]4C3)n2)cc1
REMARK SMILES IDX 6 1 7 2 8 3 9 4 10 5 21 6 5 7 4 8 1 9 2 10 23 11 3 12 22 13
REMARK SMILES IDX 11 14 12 16 13 17 20 18 14 19 19 20 15 21 18 22 16 23 17 24
REMARK H PARENT 11 15
ROOT
ATOM      1  C   UNL     1      -0.120  -1.651   1.902  1.00  0.00     0.224 A 
ATOM      2  C   UNL     1      -0.253  -0.799   3.009  1.00  0.00     0.089 A 
ATOM      3  C   UNL     1      -0.338   0.574   2.786  1.00  0.00     0.121 A 
ATOM      4  N   UNL     1      -0.278   1.061   1.521  1.00  0.00    -0.221 NA
ATOM      5  C   UNL     1      -0.131   0.228   0.455  1.00  0.00     0.226 A 
ATOM      6  N   UNL     1      -0.050  -1.114   0.656  1.00  0.00    -0.177 NA
ENDROOT
BRANCH   1   7
ATOM      7  O   UNL     1      -0.009  -3.041   2.046  1.00  0.00    -0.439 OA
BRANCH   7   8
ATOM      8  C   UNL     1      -0.598  -3.804   3.065  1.00  0.00     0.129 A 
ATOM      9  C   UNL     1      -1.739  -5.407   5.068  1.00  0.00     0.000 A 
ATOM     10  C   UNL     1      -0.526  -5.777   4.481  1.00  0.00     0.004 A 
ATOM     11  C   UNL     1      -2.392  -4.245   4.648  1.00  0.00     0.004 A 
ATOM     12  C   UNL     1       0.039  -4.981   3.478  1.00  0.00     0.047 A 
ATOM     13  C   UNL     1      -1.830  -3.447   3.646  1.00  0.00     0.047 A 
ENDBRANCH   7   8
ENDBRANCH   1   7
BRANCH   5  14
ATOM     14  N   UNL     1      -0.061   0.751  -0.878  1.00  0.00    -0.351 N 
ATOM     15  H   UNL     1      -0.010   0.063  -1.664  1.00  0.00     0.163 HD
BRANCH  14  16
ATOM     16  C   UNL     1      -0.123   2.191  -1.167  1.00  0.00     0.082 C 
ATOM     17  C   UNL     1      -0.498   2.436  -2.647  1.00  0.00     0.027 C 
ATOM     18  C   UNL     1       1.196   2.896  -0.742  1.00  0.00     0.031 C 
ATOM     19  C   UNL     1       0.011   3.793  -3.134  1.00  0.00     0.034 C 
ATOM     20  C   UNL     1       2.182   3.182  -1.897  1.00  0.00     0.022 C 
ATOM     21  C   UNL     1       1.549   3.822  -3.146  1.00  0.00     0.121 C 
ATOM     22  C   UNL     1       2.859   1.947  -2.430  1.00  0.00     0.035 C 
ATOM     23  O   UNL     1       2.019   3.149  -4.296  1.00  0.00    -0.378 OA
ATOM     24  C   UNL     1       3.051   2.281  -3.891  1.00  0.00     0.161 C 
ENDBRANCH  14  16
ENDBRANCH   5  14
TORSDOF 4
