REMARK SMILES O=C1C[C@H](Nc2nccc(Oc3ccccc3)n2)[C@@H]2CCCCN12
REMARK SMILES IDX 6 1 7 2 8 3 9 4 10 5 18 6 5 7 4 9 1 10 2 11 3 12 24 13 23 14
REMARK SMILES IDX 19 15 22 16 20 17 21 18 11 19 12 20 13 21 17 22 14 23 16 24
REMARK SMILES IDX 15 25
REMARK H PARENT 5 8
ROOT
ATOM      1  C   UNL     1       0.520  -0.125   1.612  1.00  0.00     0.226 A 
ATOM      2  N   UNL     1       1.519  -0.656   2.370  1.00  0.00    -0.221 NA
ATOM      3  C   UNL     1       2.138   0.081   3.327  1.00  0.00     0.121 A 
ATOM      4  C   UNL     1       1.752   1.403   3.546  1.00  0.00     0.089 A 
ATOM      5  C   UNL     1       0.722   1.935   2.770  1.00  0.00     0.224 A 
ATOM      6  N   UNL     1       0.136   1.163   1.814  1.00  0.00    -0.177 NA
ENDROOT
BRANCH   1   7
ATOM      7  N   UNL     1      -0.119  -0.903   0.593  1.00  0.00    -0.349 N 
ATOM      8  H   UNL     1      -0.823  -0.426  -0.017  1.00  0.00     0.164 HD
BRANCH   7   9
ATOM      9  C   UNL     1       0.295  -2.273   0.260  1.00  0.00     0.114 C 
ATOM     10  O   UNL     1      -1.401  -3.857  -2.486  1.00  0.00    -0.275 OA
ATOM     11  C   UNL     1      -0.603  -3.327  -1.669  1.00  0.00     0.225 C 
ATOM     12  C   UNL     1      -0.915  -3.092  -0.245  1.00  0.00     0.127 C 
ATOM     13  N   UNL     1       0.695  -2.900  -2.025  1.00  0.00    -0.338 N 
ATOM     14  C   UNL     1       1.219  -2.833  -3.388  1.00  0.00     0.120 C 
ATOM     15  C   UNL     1       1.365  -2.316  -0.878  1.00  0.00     0.108 C 
ATOM     16  C   UNL     1       2.682  -2.375  -3.365  1.00  0.00     0.022 C 
ATOM     17  C   UNL     1       1.972  -0.962  -1.295  1.00  0.00     0.027 C 
ATOM     18  C   UNL     1       2.886  -1.085  -2.539  1.00  0.00     0.004 C 
ENDBRANCH   7   9
ENDBRANCH   1   7
BRANCH   5  19
ATOM     19  O   UNL     1       0.338   3.269   2.962  1.00  0.00    -0.439 OA
BRANCH  19  20
ATOM     20  C   UNL     1      -0.855   3.843   2.499  1.00  0.00     0.129 A 
ATOM     21  C   UNL     1      -0.860   5.207   2.179  1.00  0.00     0.047 A 
ATOM     22  C   UNL     1      -2.050   3.106   2.387  1.00  0.00     0.047 A 
ATOM     23  C   UNL     1      -2.030   5.823   1.722  1.00  0.00     0.004 A 
ATOM     24  C   UNL     1      -3.218   3.725   1.931  1.00  0.00     0.004 A 
ATOM     25  C   UNL     1      -3.207   5.081   1.594  1.00  0.00     0.000 A 
ENDBRANCH  19  20
ENDBRANCH   5  19
TORSDOF 4
