REMARK SMILES COc1ccc(-c2nc(CCNC(=O)c3cncc(F)c3)co2)cc1
REMARK SMILES IDX 10 1 9 2 7 3 8 4 23 5 22 6 6 7 3 8 4 9 25 10 5 11 24 12 2 13
REMARK SMILES IDX 1 14 11 15 12 16 13 17 14 18 15 20 16 21 21 22 17 23 19 24
REMARK SMILES IDX 18 25 20 26
REMARK H PARENT 12 19
ROOT
ATOM      1  C   UNL     1       1.376   2.523  -0.962  1.00  0.00     0.081 C 
ENDROOT
BRANCH   1   2
ATOM      2  C   UNL     1       1.600   1.044  -1.062  1.00  0.00     0.081 A 
ATOM      3  C   UNL     1       1.686  -1.018  -0.611  1.00  0.00     0.226 A 
ATOM      4  N   UNL     1       1.401   0.178  -0.051  1.00  0.00    -0.214 NA
ATOM      5  O   UNL     1       2.035  -0.913  -1.876  1.00  0.00    -0.444 OA
ATOM      6  C   UNL     1       1.988   0.357  -2.190  1.00  0.00     0.221 A 
BRANCH   3   7
ATOM      7  C   UNL     1       1.601  -2.304   0.111  1.00  0.00     0.037 A 
ATOM      8  C   UNL     1       1.395  -4.769   1.465  1.00  0.00     0.118 A 
ATOM      9  C   UNL     1       1.900  -4.717   0.150  1.00  0.00     0.047 A 
ATOM     10  C   UNL     1       1.005  -3.581   2.095  1.00  0.00     0.047 A 
ATOM     11  C   UNL     1       1.999  -3.494  -0.520  1.00  0.00     0.017 A 
ATOM     12  C   UNL     1       1.108  -2.357   1.427  1.00  0.00     0.017 A 
BRANCH   8  13
ATOM     13  O   UNL     1       1.262  -5.973   2.172  1.00  0.00    -0.497 OA
ATOM     14  C   UNL     1       1.608  -7.254   1.651  1.00  0.00     0.278 C 
ENDBRANCH   8  13
ENDBRANCH   3   7
ENDBRANCH   1   2
BRANCH   1  15
ATOM     15  C   UNL     1      -0.101   2.849  -0.717  1.00  0.00     0.122 C 
BRANCH  15  16
ATOM     16  N   UNL     1      -0.940   2.416  -1.835  1.00  0.00    -0.352 N 
ATOM     17  C   UNL     1      -2.370   2.533  -1.779  1.00  0.00     0.252 C 
ATOM     18  O   UNL     1      -2.901   3.221  -0.865  1.00  0.00    -0.269 OA
ATOM     19  H   UNL     1      -0.491   2.043  -2.700  1.00  0.00     0.163 HD
BRANCH  17  20
ATOM     20  C   UNL     1      -3.234   1.867  -2.782  1.00  0.00     0.061 A 
ATOM     21  C   UNL     1      -2.790   0.746  -3.508  1.00  0.00     0.125 A 
ATOM     22  C   UNL     1      -4.542   2.329  -3.008  1.00  0.00     0.056 A 
ATOM     23  N   UNL     1      -3.610   0.143  -4.411  1.00  0.00    -0.261 NA
ATOM     24  C   UNL     1      -5.360   1.692  -3.943  1.00  0.00     0.142 A 
ATOM     25  C   UNL     1      -4.870   0.590  -4.645  1.00  0.00     0.150 A 
ATOM     26  F   UNL     1      -6.619   2.141  -4.167  1.00  0.00    -0.205 F 
ENDBRANCH  17  20
ENDBRANCH  15  16
ENDBRANCH   1  15
TORSDOF 6
