REMARK SMILES C[C@@H](Nc1nc2ccccc2n2nnnc12)c1cnccn1
REMARK SMILES IDX 1 1 2 2 3 3 4 5 5 6 16 7 6 8 15 9 12 10 7 11 11 12 14 13
REMARK SMILES IDX 13 14 8 15 10 16 9 17 17 18 18 19 22 20 19 21 21 22 20 23
REMARK H PARENT 3 4
ROOT
ATOM      1  C   UNL     1      -0.296  -2.984   0.362  1.00  0.00     0.038 C 
ATOM      2  C   UNL     1       0.197  -2.244  -0.890  1.00  0.00     0.128 C 
ENDROOT
BRANCH   2   3
ATOM      3  N   UNL     1      -0.747  -1.190  -1.280  1.00  0.00    -0.359 N 
ATOM      4  H   UNL     1      -1.266  -1.320  -2.178  1.00  0.00     0.162 HD
BRANCH   3   5
ATOM      5  C   UNL     1      -0.982   0.010  -0.522  1.00  0.00     0.174 A 
ATOM      6  N   UNL     1      -0.302   0.264   0.638  1.00  0.00    -0.225 NA
ATOM      7  C   UNL     1      -1.905   0.967  -0.947  1.00  0.00     0.222 A 
ATOM      8  C   UNL     1      -0.508   1.406   1.364  1.00  0.00     0.091 A 
ATOM      9  N   UNL     1      -2.688   0.954  -2.039  1.00  0.00    -0.105 NA
ATOM     10  N   UNL     1      -2.108   2.079  -0.242  1.00  0.00    -0.188 N 
ATOM     11  C   UNL     1       0.204   1.640   2.544  1.00  0.00     0.031 A 
ATOM     12  C   UNL     1      -1.451   2.361   0.911  1.00  0.00     0.095 A 
ATOM     13  N   UNL     1      -3.369   2.097  -1.967  1.00  0.00    -0.023 NA
ATOM     14  N   UNL     1      -3.022   2.782  -0.881  1.00  0.00    -0.039 NA
ATOM     15  C   UNL     1      -0.021   2.816   3.272  1.00  0.00     0.002 A 
ATOM     16  C   UNL     1      -1.673   3.535   1.642  1.00  0.00     0.031 A 
ATOM     17  C   UNL     1      -0.955   3.759   2.823  1.00  0.00     0.002 A 
ENDBRANCH   3   5
ENDBRANCH   2   3
BRANCH   2  18
ATOM     18  C   UNL     1       1.607  -1.696  -0.799  1.00  0.00     0.081 A 
ATOM     19  C   UNL     1       2.258  -1.432   0.423  1.00  0.00     0.137 A 
ATOM     20  N   UNL     1       2.260  -1.400  -1.957  1.00  0.00    -0.256 NA
ATOM     21  N   UNL     1       3.512  -0.907   0.415  1.00  0.00    -0.261 NA
ATOM     22  C   UNL     1       3.513  -0.877  -1.960  1.00  0.00     0.131 A 
ATOM     23  C   UNL     1       4.153  -0.626  -0.748  1.00  0.00     0.131 A 
ENDBRANCH   2  18
TORSDOF 3
