REMARK SMILES N#Cc1cc(N(CC[C@H]2C[C@H](F)C2)Cc2ccns2)ncn1
REMARK SMILES IDX 7 1 6 2 5 3 1 4 2 5 3 6 4 7 22 8 21 9 20 10 14 11 15 12
REMARK SMILES IDX 16 13 19 14 17 15 18 16 8 17 9 18 10 19 13 20 11 21 12 22
REMARK H PARENT
ROOT
ATOM      1  C   UNL     1       0.887   0.965  -0.118  1.00  0.00     0.119 C 
ENDROOT
BRANCH   1   2
ATOM      2  N   UNL     1       0.080  -0.071  -0.792  1.00  0.00    -0.351 N 
BRANCH   2   3
ATOM      3  C   UNL     1      -1.353  -0.075  -0.639  1.00  0.00     0.133 A 
ATOM      4  N   UNL     1      -4.947   3.150  -1.023  1.00  0.00    -0.191 NA
ATOM      5  C   UNL     1      -4.297   2.205  -0.867  1.00  0.00     0.120 C 
ATOM      6  C   UNL     1      -3.490   1.032  -0.672  1.00  0.00     0.145 A 
ATOM      7  C   UNL     1      -2.105   1.091  -0.842  1.00  0.00     0.087 A 
ATOM      8  N   UNL     1      -4.081  -0.141  -0.328  1.00  0.00    -0.225 NA
ATOM      9  C   UNL     1      -3.343  -1.266  -0.146  1.00  0.00     0.225 A 
ATOM     10  N   UNL     1      -1.995  -1.228  -0.304  1.00  0.00    -0.219 NA
ENDBRANCH   2   3
BRANCH   2  11
ATOM     11  C   UNL     1       0.736  -1.244  -1.392  1.00  0.00     0.166 C 
BRANCH  11  12
ATOM     12  C   UNL     1       1.749  -0.827  -2.410  1.00  0.00     0.045 A 
ATOM     13  C   UNL     1       1.510  -0.232  -3.640  1.00  0.00     0.039 A 
ATOM     14  S   UNL     1       3.406  -0.895  -2.262  1.00  0.00    -0.040 S 
ATOM     15  C   UNL     1       2.694   0.090  -4.335  1.00  0.00     0.126 A 
ATOM     16  N   UNL     1       3.860  -0.214  -3.708  1.00  0.00    -0.201 NA
ENDBRANCH  11  12
ENDBRANCH   2  11
ENDBRANCH   1   2
BRANCH   1  17
ATOM     17  C   UNL     1       1.559   0.436   1.159  1.00  0.00     0.025 C 
BRANCH  17  18
ATOM     18  C   UNL     1       0.549  -0.159   2.159  1.00  0.00    -0.004 C 
ATOM     19  C   UNL     1       1.165  -0.496   3.517  1.00  0.00     0.041 C 
ATOM     20  C   UNL     1      -0.360   0.872   2.830  1.00  0.00     0.041 C 
ATOM     21  C   UNL     1       0.246   0.520   4.182  1.00  0.00     0.167 C 
ATOM     22  F   UNL     1      -0.675  -0.085   5.021  1.00  0.00    -0.247 F 
ENDBRANCH  17  18
ENDBRANCH   1  17
TORSDOF 6
