REMARK SMILES CN1CC[C@@](C)(CNC(=O)Nc2ccc(-c3ncco3)cc2)C1
REMARK SMILES IDX 8 1 9 2 10 3 11 4 7 7 5 8 2 9 3 10 23 11 4 12 1 13 6 14
REMARK SMILES IDX 12 15 13 16 22 17 14 18 21 19 15 20 16 21 17 22 20 23 18 24
REMARK SMILES IDX 19 25
REMARK H PARENT 8 5 11 6
ROOT
ATOM      1  N   UNL     1      -1.331   1.860   1.232  1.00  0.00    -0.337 N 
ATOM      2  C   UNL     1      -0.251   1.211   0.545  1.00  0.00     0.319 C 
ATOM      3  O   UNL     1      -0.044  -0.022   0.713  1.00  0.00    -0.249 OA
ATOM      4  N   UNL     1       0.561   1.964  -0.368  1.00  0.00    -0.308 N 
ATOM      5  H   UNL     1      -1.480   2.882   1.072  1.00  0.00     0.165 HD
ATOM      6  H   UNL     1       0.196   2.889  -0.689  1.00  0.00     0.171 HD
ENDROOT
BRANCH   1   7
ATOM      7  C   UNL     1      -2.234   1.160   2.148  1.00  0.00     0.125 C 
BRANCH   7   8
ATOM      8  C   UNL     1      -3.634   0.909   1.516  1.00  0.00    -0.001 C 
ATOM      9  N   UNL     1      -3.502  -1.397   0.870  1.00  0.00    -0.306 NA
ATOM     10  C   UNL     1      -4.256  -1.359   2.133  1.00  0.00     0.085 C 
ATOM     11  C   UNL     1      -3.548  -0.039   0.317  1.00  0.00     0.092 C 
ATOM     12  C   UNL     1      -4.501   0.106   2.491  1.00  0.00     0.025 C 
ATOM     13  C   UNL     1      -4.046  -2.385  -0.072  1.00  0.00     0.105 C 
ATOM     14  C   UNL     1      -4.311   2.243   1.137  1.00  0.00     0.014 C 
ENDBRANCH   7   8
ENDBRANCH   1   7
BRANCH   4  15
ATOM     15  C   UNL     1       1.775   1.474  -0.963  1.00  0.00     0.042 A 
ATOM     16  C   UNL     1       2.119   1.883  -2.259  1.00  0.00     0.027 A 
ATOM     17  C   UNL     1       2.656   0.640  -0.253  1.00  0.00     0.027 A 
ATOM     18  C   UNL     1       3.304   1.438  -2.853  1.00  0.00     0.016 A 
ATOM     19  C   UNL     1       3.841   0.195  -0.846  1.00  0.00     0.016 A 
ATOM     20  C   UNL     1       4.173   0.586  -2.153  1.00  0.00     0.037 A 
BRANCH  20  21
ATOM     21  C   UNL     1       5.424   0.119  -2.785  1.00  0.00     0.225 A 
ATOM     22  N   UNL     1       6.313  -0.698  -2.180  1.00  0.00    -0.218 NA
ATOM     23  O   UNL     1       5.795   0.452  -4.002  1.00  0.00    -0.445 OA
ATOM     24  C   UNL     1       7.276  -0.855  -3.108  1.00  0.00     0.154 A 
ATOM     25  C   UNL     1       6.941  -0.137  -4.232  1.00  0.00     0.218 A 
ENDBRANCH  20  21
ENDBRANCH   4  15
TORSDOF 4
