REMARK SMILES O=C1C[C@@H](Nc2nccc(Oc3ccccc3)n2)[C@H]2CCCCN12
REMARK SMILES IDX 6 1 7 2 8 3 9 4 10 5 18 6 5 7 4 9 1 10 2 11 3 12 24 13 23 14
REMARK SMILES IDX 19 15 22 16 20 17 21 18 11 19 12 20 13 21 17 22 14 23 16 24
REMARK SMILES IDX 15 25
REMARK H PARENT 5 8
ROOT
ATOM      1  C   UNL     1       0.193   0.807  -0.921  1.00  0.00     0.226 A 
ATOM      2  N   UNL     1       0.404   0.606  -2.251  1.00  0.00    -0.221 NA
ATOM      3  C   UNL     1       1.488   1.134  -2.875  1.00  0.00     0.121 A 
ATOM      4  C   UNL     1       2.404   1.896  -2.153  1.00  0.00     0.089 A 
ATOM      5  C   UNL     1       2.175   2.104  -0.792  1.00  0.00     0.224 A 
ATOM      6  N   UNL     1       1.080   1.547  -0.205  1.00  0.00    -0.177 NA
ENDROOT
BRANCH   1   7
ATOM      7  N   UNL     1      -0.946   0.236  -0.264  1.00  0.00    -0.349 N 
ATOM      8  H   UNL     1      -1.016   0.346   0.774  1.00  0.00     0.164 HD
BRANCH   7   9
ATOM      9  C   UNL     1      -1.893  -0.656  -0.944  1.00  0.00     0.114 C 
ATOM     10  O   UNL     1      -4.454  -1.871   1.266  1.00  0.00    -0.275 OA
ATOM     11  C   UNL     1      -3.471  -1.676   0.502  1.00  0.00     0.225 C 
ATOM     12  C   UNL     1      -3.308  -0.474  -0.347  1.00  0.00     0.127 C 
ATOM     13  N   UNL     1      -2.416  -2.602   0.343  1.00  0.00    -0.338 N 
ATOM     14  C   UNL     1      -2.353  -3.953   0.894  1.00  0.00     0.120 C 
ATOM     15  C   UNL     1      -1.542  -2.156  -0.725  1.00  0.00     0.108 C 
ATOM     16  C   UNL     1      -0.892  -4.310   1.203  1.00  0.00     0.022 C 
ATOM     17  C   UNL     1      -0.082  -2.484  -0.364  1.00  0.00     0.027 C 
ATOM     18  C   UNL     1       0.038  -3.966   0.025  1.00  0.00     0.004 C 
ENDBRANCH   7   9
ENDBRANCH   1   7
BRANCH   5  19
ATOM     19  O   UNL     1       3.099   2.849  -0.048  1.00  0.00    -0.439 OA
BRANCH  19  20
ATOM     20  C   UNL     1       2.862   3.396   1.222  1.00  0.00     0.129 A 
ATOM     21  C   UNL     1       3.942   3.534   2.103  1.00  0.00     0.047 A 
ATOM     22  C   UNL     1       1.589   3.848   1.619  1.00  0.00     0.047 A 
ATOM     23  C   UNL     1       3.753   4.083   3.376  1.00  0.00     0.004 A 
ATOM     24  C   UNL     1       1.403   4.398   2.892  1.00  0.00     0.004 A 
ATOM     25  C   UNL     1       2.483   4.511   3.771  1.00  0.00     0.000 A 
ENDBRANCH  19  20
ENDBRANCH   5  19
TORSDOF 4
