REMARK SMILES O=C(Nc1ccc(OC(F)F)cc1)c1ccc(Nc2ncccn2)cc1
REMARK SMILES IDX 4 1 5 2 6 3 7 4 12 5 13 6 3 7 1 8 2 9 14 11 15 12 26 13
REMARK SMILES IDX 16 14 25 15 17 16 18 17 19 19 20 20 24 21 21 22 23 23 22 24
REMARK SMILES IDX 8 25 9 26 10 27 11 28
REMARK H PARENT 3 10 18 18
ROOT
ATOM      1  C   UNL     1      -1.162   0.133  -3.016  1.00  0.00     0.041 A 
ATOM      2  C   UNL     1      -2.264   0.373  -3.848  1.00  0.00     0.030 A 
ATOM      3  C   UNL     1      -2.114   0.388  -5.238  1.00  0.00     0.049 A 
ATOM      4  C   UNL     1      -0.859   0.178  -5.820  1.00  0.00     0.126 A 
ATOM      5  C   UNL     1       0.254  -0.043  -4.988  1.00  0.00     0.049 A 
ATOM      6  C   UNL     1       0.104  -0.059  -3.598  1.00  0.00     0.030 A 
ENDROOT
BRANCH   1   7
ATOM      7  N   UNL     1      -1.337   0.145  -1.589  1.00  0.00    -0.322 N 
ATOM      8  O   UNL     1       0.064  -1.658  -1.098  1.00  0.00    -0.269 OA
ATOM      9  C   UNL     1      -0.539  -0.631  -0.679  1.00  0.00     0.255 C 
ATOM     10  H   UNL     1      -2.162   0.658  -1.203  1.00  0.00     0.170 HD
BRANCH   9  11
ATOM     11  C   UNL     1      -0.456  -0.272   0.757  1.00  0.00     0.040 A 
ATOM     12  C   UNL     1      -0.035  -1.225   1.702  1.00  0.00     0.016 A 
ATOM     13  C   UNL     1      -0.779   1.024   1.199  1.00  0.00     0.016 A 
ATOM     14  C   UNL     1       0.053  -0.893   3.057  1.00  0.00     0.027 A 
ATOM     15  C   UNL     1      -0.690   1.354   2.555  1.00  0.00     0.027 A 
ATOM     16  C   UNL     1      -0.257   0.407   3.492  1.00  0.00     0.041 A 
BRANCH  16  17
ATOM     17  N   UNL     1      -0.198   0.766   4.883  1.00  0.00    -0.324 N 
ATOM     18  H   UNL     1      -0.866   1.489   5.233  1.00  0.00     0.170 HD
BRANCH  17  19
ATOM     19  C   UNL     1       0.791   0.278   5.801  1.00  0.00     0.227 A 
ATOM     20  N   UNL     1       0.633   0.497   7.135  1.00  0.00    -0.221 NA
ATOM     21  N   UNL     1       1.910  -0.354   5.352  1.00  0.00    -0.221 NA
ATOM     22  C   UNL     1       1.563   0.075   8.030  1.00  0.00     0.117 A 
ATOM     23  C   UNL     1       2.863  -0.791   6.215  1.00  0.00     0.117 A 
ATOM     24  C   UNL     1       2.707  -0.586   7.585  1.00  0.00     0.040 A 
ENDBRANCH  17  19
ENDBRANCH  16  17
ENDBRANCH   9  11
ENDBRANCH   1   7
BRANCH   4  25
ATOM     25  O   UNL     1      -0.763   0.201  -7.220  1.00  0.00    -0.435 OA
BRANCH  25  26
ATOM     26  C   UNL     1       0.447   0.034  -7.954  1.00  0.00     0.542 C 
ATOM     27  F   UNL     1       1.306   1.085  -7.692  1.00  0.00    -0.167 F 
ATOM     28  F   UNL     1       0.157   0.016  -9.305  1.00  0.00    -0.167 F 
ENDBRANCH  25  26
ENDBRANCH   4  25
TORSDOF 6
