REMARK SMILES CN(C)c1cccc2sc(C(=O)N[C@]3(c4ccccc4)CCNC3)cc12
REMARK SMILES IDX 4 1 5 2 6 3 7 4 8 5 9 6 10 7 25 8 26 9 2 10 1 11 3 12 11 13
REMARK SMILES IDX 12 14 13 15 14 17 21 18 24 19 22 20 23 21 15 23 16 24 20 25
REMARK SMILES IDX 17 26 19 27 18 28
REMARK H PARENT 13 16 23 22
ROOT
ATOM      1  C   UNL     1      -3.150   3.168  -1.027  1.00  0.00     0.045 A 
ATOM      2  C   UNL     1      -3.213   4.548  -1.309  1.00  0.00     0.026 A 
ATOM      3  C   UNL     1      -2.053   5.343  -1.266  1.00  0.00     0.004 A 
ATOM      4  C   UNL     1      -0.814   4.773  -0.946  1.00  0.00     0.020 A 
ATOM      5  C   UNL     1      -0.767   3.408  -0.678  1.00  0.00     0.037 A 
ATOM      6  S   UNL     1       0.576   2.478  -0.299  1.00  0.00    -0.130 S 
ATOM      7  C   UNL     1      -0.276   1.019  -0.183  1.00  0.00     0.093 A 
ATOM      8  C   UNL     1      -1.627   1.256  -0.445  1.00  0.00     0.036 A 
ATOM      9  C   UNL     1      -1.899   2.606  -0.716  1.00  0.00     0.017 A 
ENDROOT
BRANCH   1  10
ATOM     10  N   UNL     1      -4.344   2.369  -1.057  1.00  0.00    -0.377 N 
ATOM     11  C   UNL     1      -4.845   1.736   0.164  1.00  0.00     0.143 C 
ATOM     12  C   UNL     1      -5.087   2.227  -2.308  1.00  0.00     0.143 C 
ENDBRANCH   1  10
BRANCH   7  13
ATOM     13  C   UNL     1       0.309  -0.298   0.133  1.00  0.00     0.262 C 
ATOM     14  O   UNL     1      -0.447  -1.305   0.185  1.00  0.00    -0.268 OA
ATOM     15  N   UNL     1       1.720  -0.438   0.380  1.00  0.00    -0.340 N 
ATOM     16  H   UNL     1       2.310   0.423   0.331  1.00  0.00     0.164 HD
BRANCH  15  17
ATOM     17  C   UNL     1       2.376  -1.724   0.691  1.00  0.00     0.079 C 
ATOM     18  C   UNL     1       1.951  -2.207   2.078  1.00  0.00     0.050 C 
ATOM     19  C   UNL     1       3.880  -1.503   0.920  1.00  0.00     0.114 C 
ATOM     20  C   UNL     1       2.847  -1.435   3.032  1.00  0.00     0.084 C 
ATOM     21  N   UNL     1       4.066  -1.069   2.306  1.00  0.00    -0.314 NA
ATOM     22  H   UNL     1       4.155  -0.025   2.314  1.00  0.00     0.122 HD
BRANCH  17  23
ATOM     23  C   UNL     1       2.132  -2.719  -0.449  1.00  0.00    -0.021 A 
ATOM     24  C   UNL     1       1.226  -3.796  -0.331  1.00  0.00     0.006 A 
ATOM     25  C   UNL     1       2.754  -2.504  -1.697  1.00  0.00     0.006 A 
ATOM     26  C   UNL     1       0.997  -4.656  -1.409  1.00  0.00     0.000 A 
ATOM     27  C   UNL     1       2.521  -3.368  -2.771  1.00  0.00     0.000 A 
ATOM     28  C   UNL     1       1.647  -4.446  -2.625  1.00  0.00     0.000 A 
ENDBRANCH  17  23
ENDBRANCH  15  17
ENDBRANCH   7  13
TORSDOF 4
