REMARK SMILES C[C@@H]1CCCCN1CCC1CCN(c2ncnc3[nH]ncc23)CC1
REMARK SMILES IDX 9 1 8 2 7 3 2 4 3 5 4 6 6 7 5 8 1 9 10 10 11 11 24 12 12 13
REMARK SMILES IDX 23 14 13 15 14 16 15 17 22 18 16 19 21 20 18 21 17 22 20 23
REMARK SMILES IDX 19 24
REMARK H PARENT 19 25
ROOT
ATOM      1  C   UNL     1       0.887  -2.217   0.722  1.00  0.00     0.019 C 
ENDROOT
BRANCH   1   2
ATOM      2  C   UNL     1      -0.495  -2.463   1.357  1.00  0.00     0.085 C 
BRANCH   2   3
ATOM      3  N   UNL     1      -1.320  -1.236   1.348  1.00  0.00    -0.301 NA
ATOM      4  C   UNL     1      -1.057  -0.290   2.465  1.00  0.00     0.053 C 
ATOM      5  C   UNL     1      -1.654   1.100   2.117  1.00  0.00     0.019 C 
ATOM      6  C   UNL     1      -2.736   1.029   1.023  1.00  0.00     0.003 C 
ATOM      7  C   UNL     1      -2.760  -1.515   1.155  1.00  0.00     0.085 C 
ATOM      8  C   UNL     1      -3.606  -0.222   1.177  1.00  0.00     0.016 C 
ATOM      9  C   UNL     1      -1.579  -0.787   3.833  1.00  0.00     0.024 C 
ENDBRANCH   2   3
ENDBRANCH   1   2
BRANCH   1  10
ATOM     10  C   UNL     1       0.907  -2.302  -0.829  1.00  0.00    -0.006 C 
ATOM     11  C   UNL     1       0.035  -1.228  -1.515  1.00  0.00     0.025 C 
ATOM     12  C   UNL     1       2.369  -2.249  -1.363  1.00  0.00     0.025 C 
ATOM     13  C   UNL     1       0.594   0.180  -1.274  1.00  0.00     0.118 C 
ATOM     14  C   UNL     1       2.746  -0.926  -2.056  1.00  0.00     0.118 C 
ATOM     15  N   UNL     1       2.054   0.215  -1.445  1.00  0.00    -0.356 N 
BRANCH  15  16
ATOM     16  C   UNL     1       2.726   1.482  -1.382  1.00  0.00     0.143 A 
ATOM     17  N   UNL     1       3.401   1.964  -2.470  1.00  0.00    -0.219 NA
ATOM     18  C   UNL     1       2.727   2.267  -0.232  1.00  0.00     0.081 A 
ATOM     19  C   UNL     1       4.043   3.175  -2.440  1.00  0.00     0.226 A 
ATOM     20  C   UNL     1       2.249   2.110   1.054  1.00  0.00     0.149 A 
ATOM     21  C   UNL     1       3.367   3.462  -0.226  1.00  0.00     0.160 A 
ATOM     22  N   UNL     1       4.032   3.938  -1.306  1.00  0.00    -0.217 NA
ATOM     23  N   UNL     1       2.602   3.205   1.774  1.00  0.00    -0.181 NA
ATOM     24  N   UNL     1       3.284   4.029   0.985  1.00  0.00    -0.261 N 
ATOM     25  H   UNL     1       3.692   4.942   1.283  1.00  0.00     0.192 HD
ENDBRANCH  15  16
ENDBRANCH   1  10
TORSDOF 4
