REMARK SMILES COc1ccc2nc(NC(=O)N3CCC[C@@H](Nc4ccccc4)C3)sc2n1
REMARK SMILES IDX 9 1 10 2 11 3 8 5 3 6 4 7 27 8 5 9 26 10 6 11 25 12 7 13
REMARK SMILES IDX 2 14 1 15 12 16 13 17 24 18 14 19 16 20 15 21 17 22 18 24
REMARK SMILES IDX 19 25 23 26 20 27 22 28 21 29
REMARK H PARENT 9 4 17 23
ROOT
ATOM      1  N   UNL     1       0.572  -0.567   1.225  1.00  0.00    -0.283 N 
ATOM      2  C   UNL     1       0.714  -0.139  -0.144  1.00  0.00     0.323 C 
ATOM      3  O   UNL     1       0.126   0.907  -0.533  1.00  0.00    -0.248 OA
ATOM      4  H   UNL     1       0.959  -1.489   1.521  1.00  0.00     0.174 HD
ENDROOT
BRANCH   1   5
ATOM      5  C   UNL     1      -0.115   0.192   2.229  1.00  0.00     0.193 A 
ATOM      6  C   UNL     1      -2.324   2.569   5.600  1.00  0.00     0.214 A 
ATOM      7  C   UNL     1      -2.429   3.462   4.512  1.00  0.00     0.071 A 
ATOM      8  N   UNL     1      -1.683   1.370   5.443  1.00  0.00    -0.201 NA
ATOM      9  C   UNL     1      -1.877   3.119   3.267  1.00  0.00     0.037 A 
ATOM     10  C   UNL     1      -1.154   1.049   4.237  1.00  0.00     0.149 A 
ATOM     11  C   UNL     1      -1.234   1.890   3.146  1.00  0.00     0.103 A 
ATOM     12  S   UNL     1      -0.334  -0.352   3.823  1.00  0.00    -0.076 S 
ATOM     13  N   UNL     1      -0.654   1.420   2.014  1.00  0.00    -0.218 NA
BRANCH   6  14
ATOM     14  O   UNL     1      -2.879   2.926   6.832  1.00  0.00    -0.481 OA
ATOM     15  C   UNL     1      -2.817   2.084   7.977  1.00  0.00     0.280 C 
ENDBRANCH   6  14
ENDBRANCH   1   5
BRANCH   2  16
ATOM     16  N   UNL     1       1.510  -0.897  -1.085  1.00  0.00    -0.322 N 
ATOM     17  C   UNL     1       2.481  -1.879  -0.572  1.00  0.00     0.121 C 
ATOM     18  C   UNL     1       1.395  -0.555  -2.519  1.00  0.00     0.146 C 
ATOM     19  C   UNL     1       3.421  -2.402  -1.653  1.00  0.00     0.024 C 
ATOM     20  C   UNL     1       1.921  -1.639  -3.503  1.00  0.00     0.098 C 
ATOM     21  C   UNL     1       2.607  -2.850  -2.854  1.00  0.00     0.028 C 
BRANCH  20  22
ATOM     22  N   UNL     1       0.882  -2.070  -4.452  1.00  0.00    -0.381 N 
ATOM     23  H   UNL     1       1.075  -1.873  -5.461  1.00  0.00     0.160 HD
BRANCH  22  24
ATOM     24  C   UNL     1      -0.358  -2.740  -4.135  1.00  0.00     0.034 A 
ATOM     25  C   UNL     1      -0.770  -2.992  -2.809  1.00  0.00     0.025 A 
ATOM     26  C   UNL     1      -1.196  -3.148  -5.188  1.00  0.00     0.025 A 
ATOM     27  C   UNL     1      -1.983  -3.638  -2.553  1.00  0.00     0.002 A 
ATOM     28  C   UNL     1      -2.409  -3.794  -4.927  1.00  0.00     0.002 A 
ATOM     29  C   UNL     1      -2.802  -4.038  -3.610  1.00  0.00     0.000 A 
ENDBRANCH  22  24
ENDBRANCH  20  22
ENDBRANCH   2  16
TORSDOF 5
