REMARK SMILES c1ccc(-c2noc(C3CCN(C[C@H]4CCCCNC4)CC3)n2)cc1
REMARK SMILES IDX 13 1 12 2 9 3 10 4 22 5 11 6 21 7 8 8 5 9 6 10 23 11 7 12
REMARK SMILES IDX 4 13 1 14 2 15 25 16 3 17 24 18 14 19 15 20 16 21 17 22
REMARK SMILES IDX 20 24 19 25 18 27
REMARK H PARENT 19 26
REMARK Flexibility Score:   65.900
ROOT
ATOM      1  C   UNL     1       2.052   1.370  -0.550  1.00  0.00     0.089 C 
ENDROOT
BRANCH   1   2
ATOM      2  N   UNL     1       1.125   2.067   0.374  1.00  0.00    -0.303 NA
ATOM      3  C   UNL     1      -0.573   3.363   2.058  1.00  0.00     0.081 C 
ATOM      4  C   UNL     1      -0.353   4.077   0.711  1.00  0.00     0.029 C 
ATOM      5  C   UNL     1       0.780   2.955   2.678  1.00  0.00     0.029 C 
ATOM      6  C   UNL     1       0.551   3.279  -0.258  1.00  0.00     0.085 C 
ATOM      7  C   UNL     1       1.792   2.418   1.642  1.00  0.00     0.085 C 
BRANCH   3   8
ATOM      8  C   UNL     1      -1.498   2.175   1.940  1.00  0.00     0.230 A 
ATOM      9  C   UNL     1      -2.673   0.606   1.213  1.00  0.00     0.202 A 
ATOM     10  N   UNL     1      -2.741   0.555   2.558  1.00  0.00    -0.057 NA
ATOM     11  N   UNL     1      -1.896   1.620   0.778  1.00  0.00    -0.191 NA
ATOM     12  O   UNL     1      -2.003   1.541   2.969  1.00  0.00    -0.339 OA
BRANCH   9  13
ATOM     13  C   UNL     1      -3.346  -0.356   0.314  1.00  0.00     0.023 A 
ATOM     14  C   UNL     1      -4.594  -2.204  -1.395  1.00  0.00     0.000 A 
ATOM     15  C   UNL     1      -4.738  -2.325  -0.011  1.00  0.00     0.001 A 
ATOM     16  C   UNL     1      -3.831  -1.163  -1.930  1.00  0.00     0.001 A 
ATOM     17  C   UNL     1      -4.118  -1.407   0.842  1.00  0.00     0.012 A 
ATOM     18  C   UNL     1      -3.210  -0.242  -1.081  1.00  0.00     0.012 A 
ENDBRANCH   9  13
ENDBRANCH   3   8
ENDBRANCH   1   2
BRANCH   1  19
ATOM     19  C   UNL     1       1.291   0.315  -1.381  1.00  0.00     0.017 C 
BRANCH  19  20
ATOM     20  C   UNL     1       2.175  -0.270  -2.513  1.00  0.00     0.006 C 
BRANCH  20  21
ATOM     21  C   UNL     1       3.385  -1.113  -2.063  1.00  0.00     0.002 C 
BRANCH  21  22
ATOM     22  C   UNL     1       3.159  -2.041  -0.857  1.00  0.00     0.015 CG0
ATOM     23  G   UNL     1       1.854  -2.866  -0.891  1.00  0.00     0.000 G0
ENDBRANCH  21  22
ENDBRANCH  20  21
ENDBRANCH  19  20
BRANCH  19  24
ATOM     24  C   UNL     1       0.632  -0.766  -0.481  1.00  0.00     0.085 C 
BRANCH  24  25
ATOM     25  N   UNL     1       0.630  -2.080  -1.141  1.00  0.00    -0.316 NA
ATOM     26  H   UNL     1      -0.183  -2.632  -0.781  1.00  0.00     0.122 HD
BRANCH  25  27
ATOM     27  C   UNL     1       1.854  -2.866  -0.891  1.00  0.00     0.081 CG0
ATOM     28  G   UNL     1       3.159  -2.041  -0.857  1.00  0.00     0.000 G0
ENDBRANCH  25  27
ENDBRANCH  24  25
ENDBRANCH  19  24
ENDBRANCH   1  19
TORSDOF 4
