REMARK SMILES O=C(N[C@H]1CC[C@@H]2CC[C@@H]21)c1c[nH]nc1-c1cccc(F)c1
REMARK SMILES IDX 11 1 12 2 13 3 14 4 15 5 2 7 1 8 3 9 4 11 5 12 10 13 6 14
REMARK SMILES IDX 9 15 7 16 8 17 16 18 17 19 22 20 18 21 20 22 19 23 21 24
REMARK H PARENT 13 6 3 10
ROOT
ATOM      1  C   UNL     1      -1.860   1.910  -1.121  1.00  0.00     0.085 A 
ATOM      2  C   UNL     1      -2.998   2.470  -1.663  1.00  0.00     0.119 A 
ATOM      3  N   UNL     1      -2.664   3.084  -2.812  1.00  0.00    -0.284 N 
ATOM      4  N   UNL     1      -1.365   2.957  -3.029  1.00  0.00    -0.175 NA
ATOM      5  C   UNL     1      -0.842   2.249  -2.007  1.00  0.00     0.105 A 
ATOM      6  H   UNL     1      -3.319   3.587  -3.450  1.00  0.00     0.189 HD
ENDROOT
BRANCH   1   7
ATOM      7  C   UNL     1      -1.803   1.065   0.084  1.00  0.00     0.255 C 
ATOM      8  O   UNL     1      -2.649   1.240   1.002  1.00  0.00    -0.269 OA
ATOM      9  N   UNL     1      -0.824   0.023   0.197  1.00  0.00    -0.349 N 
ATOM     10  H   UNL     1      -0.394  -0.353  -0.679  1.00  0.00     0.164 HD
BRANCH   9  11
ATOM     11  C   UNL     1      -0.506  -0.622   1.472  1.00  0.00     0.085 C 
ATOM     12  C   UNL     1      -1.212  -1.968   1.589  1.00  0.00     0.025 C 
ATOM     13  C   UNL     1       0.996  -0.939   1.564  1.00  0.00     0.015 C 
ATOM     14  C   UNL     1      -0.300  -2.836   2.442  1.00  0.00     0.006 C 
ATOM     15  C   UNL     1       1.732  -0.332   2.761  1.00  0.00     0.006 C 
ATOM     16  C   UNL     1       1.120  -2.321   2.186  1.00  0.00    -0.006 C 
ATOM     17  C   UNL     1       1.844  -1.715   3.391  1.00  0.00     0.004 C 
ENDBRANCH   9  11
ENDBRANCH   1   7
BRANCH   5  18
ATOM     18  C   UNL     1       0.605   1.979  -1.875  1.00  0.00     0.006 A 
ATOM     19  C   UNL     1       1.250   2.086  -0.630  1.00  0.00     0.010 A 
ATOM     20  C   UNL     1       1.362   1.654  -3.013  1.00  0.00     0.049 A 
ATOM     21  C   UNL     1       2.620   1.831  -0.521  1.00  0.00     0.004 A 
ATOM     22  C   UNL     1       2.733   1.401  -2.900  1.00  0.00     0.123 A 
ATOM     23  C   UNL     1       3.360   1.485  -1.654  1.00  0.00     0.039 A 
ATOM     24  F   UNL     1       3.454   1.074  -4.000  1.00  0.00    -0.207 F 
ENDBRANCH   5  18
TORSDOF 3
