REMARK SMILES CC1(CC(=O)NCc2ccc(-n3cncn3)cc2)OCCO1
REMARK SMILES IDX 4 1 5 2 6 3 3 5 2 6 19 7 22 8 20 9 21 10 1 11 7 12 8 13 9 14
REMARK SMILES IDX 18 15 10 16 17 17 11 18 12 19 13 20 16 21 14 22 15 23
REMARK H PARENT 6 4
ROOT
ATOM      1  C   UNL     1       0.868   0.121  -2.688  1.00  0.00     0.225 C 
ATOM      2  O   UNL     1       2.089  -0.018  -2.407  1.00  0.00    -0.275 OA
ATOM      3  N   UNL     1       0.188   1.347  -2.382  1.00  0.00    -0.352 N 
ATOM      4  H   UNL     1      -0.815   1.454  -2.657  1.00  0.00     0.163 HD
ENDROOT
BRANCH   1   5
ATOM      5  C   UNL     1       0.121  -1.026  -3.307  1.00  0.00     0.165 C 
BRANCH   5   6
ATOM      6  C   UNL     1      -0.494  -1.947  -2.236  1.00  0.00     0.174 C 
ATOM      7  O   UNL     1       0.531  -2.430  -1.394  1.00  0.00    -0.347 OA
ATOM      8  O   UNL     1      -1.461  -1.226  -1.503  1.00  0.00    -0.347 OA
ATOM      9  C   UNL     1       0.059  -2.288  -0.092  1.00  0.00     0.192 C 
ATOM     10  C   UNL     1      -1.129  -1.375  -0.158  1.00  0.00     0.192 C 
ATOM     11  C   UNL     1      -1.180  -3.138  -2.915  1.00  0.00     0.076 C 
ENDBRANCH   5   6
ENDBRANCH   1   5
BRANCH   3  12
ATOM     12  C   UNL     1       0.809   2.414  -1.603  1.00  0.00     0.151 C 
BRANCH  12  13
ATOM     13  C   UNL     1       0.693   2.111  -0.136  1.00  0.00    -0.029 A 
ATOM     14  C   UNL     1       1.718   1.425   0.532  1.00  0.00     0.008 A 
ATOM     15  C   UNL     1      -0.476   2.443   0.561  1.00  0.00     0.008 A 
ATOM     16  C   UNL     1       1.581   1.087   1.881  1.00  0.00     0.029 A 
ATOM     17  C   UNL     1      -0.614   2.109   1.911  1.00  0.00     0.029 A 
ATOM     18  C   UNL     1       0.412   1.426   2.590  1.00  0.00     0.066 A 
BRANCH  18  19
ATOM     19  N   UNL     1       0.247   1.078   3.981  1.00  0.00    -0.221 N 
ATOM     20  C   UNL     1       1.135   0.486   4.805  1.00  0.00     0.225 A 
ATOM     21  N   UNL     1      -0.854   1.304   4.676  1.00  0.00    -0.155 NA
ATOM     22  N   UNL     1       0.625   0.322   6.040  1.00  0.00    -0.223 NA
ATOM     23  C   UNL     1      -0.613   0.843   5.917  1.00  0.00     0.246 A 
ENDBRANCH  18  19
ENDBRANCH  12  13
ENDBRANCH   3  12
TORSDOF 5
