REMARK SMILES Cn1nc(-c2ccc(F)cc2)cc1C(=O)N1CC[C@@](C#N)(C(N)=O)C1
REMARK SMILES IDX 14 1 15 2 13 3 2 4 3 5 4 6 12 7 1 8 5 9 6 10 11 11 7 12
REMARK SMILES IDX 10 13 8 14 9 15 16 16 17 17 25 18 18 19 19 20 20 21 21 22
REMARK SMILES IDX 22 23 23 24 24 25
REMARK H PARENT 23 26 23 27
ROOT
ATOM      1  C   UNL     1      -0.554   2.274   0.182  1.00  0.00     0.272 C 
ATOM      2  O   UNL     1      -1.226   3.341   0.191  1.00  0.00    -0.267 OA
ENDROOT
BRANCH   1   3
ATOM      3  C   UNL     1      -1.254   0.987   0.366  1.00  0.00     0.126 A 
ATOM      4  N   UNL     1      -2.321   0.781   1.167  1.00  0.00    -0.262 N 
ATOM      5  N   UNL     1      -2.741  -0.467   1.035  1.00  0.00    -0.172 NA
ATOM      6  C   UNL     1      -1.939  -1.081   0.140  1.00  0.00     0.093 A 
ATOM      7  C   UNL     1      -0.982  -0.184  -0.315  1.00  0.00     0.064 A 
ATOM      8  C   UNL     1      -2.968   1.755   2.040  1.00  0.00     0.174 C 
BRANCH   6   9
ATOM      9  C   UNL     1      -2.107  -2.494  -0.279  1.00  0.00     0.002 A 
ATOM     10  C   UNL     1      -1.207  -3.103  -1.175  1.00  0.00     0.013 A 
ATOM     11  C   UNL     1      -3.179  -3.253   0.226  1.00  0.00     0.013 A 
ATOM     12  C   UNL     1      -1.382  -4.437  -1.557  1.00  0.00     0.040 A 
ATOM     13  C   UNL     1      -3.349  -4.586  -0.159  1.00  0.00     0.040 A 
ATOM     14  C   UNL     1      -2.451  -5.178  -1.050  1.00  0.00     0.123 A 
ATOM     15  F   UNL     1      -2.618  -6.471  -1.422  1.00  0.00    -0.207 F 
ENDBRANCH   6   9
ENDBRANCH   1   3
BRANCH   1  16
ATOM     16  N   UNL     1       0.868   2.334  -0.024  1.00  0.00    -0.335 N 
ATOM     17  C   UNL     1       1.530   3.495  -0.597  1.00  0.00     0.122 C 
ATOM     18  C   UNL     1       1.813   1.391   0.560  1.00  0.00     0.152 C 
ATOM     19  C   UNL     1       3.005   3.340  -0.245  1.00  0.00     0.056 C 
ATOM     20  C   UNL     1       3.198   1.843   0.070  1.00  0.00     0.154 C 
ATOM     21  C   UNL     1       3.551   1.123  -1.171  1.00  0.00     0.081 C 
ATOM     22  N   UNL     1       3.827   0.558  -2.143  1.00  0.00    -0.197 NA
BRANCH  20  23
ATOM     23  C   UNL     1       4.282   1.586   1.097  1.00  0.00     0.239 C 
ATOM     24  N   UNL     1       4.356   0.330   1.776  1.00  0.00    -0.368 N 
ATOM     25  O   UNL     1       5.173   2.452   1.314  1.00  0.00    -0.273 OA
ATOM     26  H   UNL     1       3.678  -0.436   1.568  1.00  0.00     0.159 HD
ATOM     27  H   UNL     1       5.112   0.155   2.475  1.00  0.00     0.159 HD
ENDBRANCH  20  23
ENDBRANCH   1  16
TORSDOF 4
