REMARK SMILES CN1CCc2ccc(NC(=O)CN3CCCNC3=O)cc2C1=O
REMARK SMILES IDX 9 1 10 2 11 3 8 5 2 6 3 7 22 8 4 9 21 10 23 11 5 12 20 13
REMARK SMILES IDX 6 14 7 15 1 16 12 17 13 18 14 19 18 20 15 21 17 22 19 23
REMARK SMILES IDX 16 24
REMARK H PARENT 9 4 17 25
ROOT
ATOM      1  N   UNL     1      -0.559   0.957  -0.803  1.00  0.00    -0.325 N 
ATOM      2  C   UNL     1      -0.194   2.345  -0.832  1.00  0.00     0.244 C 
ATOM      3  O   UNL     1      -0.013   2.984   0.239  1.00  0.00    -0.273 OA
ATOM      4  H   UNL     1      -0.454   0.405  -1.683  1.00  0.00     0.169 HD
ENDROOT
BRANCH   1   5
ATOM      5  C   UNL     1      -0.938   0.250   0.391  1.00  0.00     0.042 A 
ATOM      6  N   UNL     1      -1.130  -3.986   2.948  1.00  0.00    -0.341 N 
ATOM      7  C   UNL     1      -2.275  -3.428   3.679  1.00  0.00     0.124 C 
ATOM      8  C   UNL     1      -0.573  -3.237   1.853  1.00  0.00     0.253 C 
ATOM      9  C   UNL     1      -2.064  -1.934   3.951  1.00  0.00     0.058 C 
ATOM     10  C   UNL     1      -0.955  -1.820   1.678  1.00  0.00     0.045 A 
ATOM     11  O   UNL     1       0.245  -3.781   1.061  1.00  0.00    -0.269 OA
ATOM     12  C   UNL     1      -1.718  -1.192   2.683  1.00  0.00    -0.033 A 
ATOM     13  C   UNL     1      -0.580  -1.098   0.534  1.00  0.00     0.040 A 
ATOM     14  C   UNL     1      -2.080   0.155   2.535  1.00  0.00     0.007 A 
ATOM     15  C   UNL     1      -1.706   0.867   1.393  1.00  0.00     0.026 A 
ATOM     16  C   UNL     1      -0.591  -5.305   3.288  1.00  0.00     0.147 C 
ENDBRANCH   1   5
BRANCH   2  17
ATOM     17  C   UNL     1       0.059   3.030  -2.142  1.00  0.00     0.221 C 
BRANCH  17  18
ATOM     18  N   UNL     1       1.490   2.994  -2.467  1.00  0.00    -0.315 N 
ATOM     19  C   UNL     1       2.389   3.973  -1.839  1.00  0.00     0.124 C 
ATOM     20  C   UNL     1       2.053   1.880  -3.189  1.00  0.00     0.317 C 
ATOM     21  C   UNL     1       3.675   4.147  -2.652  1.00  0.00     0.043 C 
ATOM     22  N   UNL     1       3.462   1.827  -3.437  1.00  0.00    -0.338 N 
ATOM     23  O   UNL     1       1.312   0.961  -3.632  1.00  0.00    -0.249 OA
ATOM     24  C   UNL     1       4.372   2.798  -2.837  1.00  0.00     0.119 C 
ATOM     25  H   UNL     1       3.861   1.012  -3.955  1.00  0.00     0.165 HD
ENDBRANCH  17  18
ENDBRANCH   2  17
TORSDOF 3
