REMARK SMILES Cn1c(=O)n(C)c2cc(S(=O)(=O)Nc3ccc4c(c3)NCC4)c(Br)cc21
REMARK SMILES IDX 10 1 11 2 12 3 9 4 2 5 3 6 26 7 4 8 5 9 25 10 7 11 23 12
REMARK SMILES IDX 8 13 1 14 6 15 24 16 13 17 14 19 15 20 19 21 16 22 18 23
REMARK SMILES IDX 17 24 20 25 22 26 21 27
REMARK H PARENT 13 18 20 28
ROOT
ATOM      1  S   UNL     1       1.518   2.905  -1.343  1.00  0.00     0.263 S 
ATOM      2  O   UNL     1       2.591   3.355  -2.295  1.00  0.00    -0.201 OA
ATOM      3  O   UNL     1       0.429   3.941  -1.324  1.00  0.00    -0.201 OA
ENDROOT
BRANCH   1   4
ATOM      4  C   UNL     1       0.893   1.342  -1.885  1.00  0.00     0.104 A 
ATOM      5  N   UNL     1      -0.875  -2.198  -3.017  1.00  0.00    -0.295 N 
ATOM      6  C   UNL     1      -2.137  -1.715  -3.141  1.00  0.00     0.328 A 
ATOM      7  C   UNL     1      -0.144  -1.121  -2.664  1.00  0.00     0.070 A 
ATOM      8  O   UNL     1      -3.134  -2.437  -3.412  1.00  0.00    -0.248 OA
ATOM      9  N   UNL     1      -2.217  -0.379  -2.921  1.00  0.00    -0.295 N 
ATOM     10  C   UNL     1       1.209  -1.054  -2.339  1.00  0.00     0.045 A 
ATOM     11  C   UNL     1      -0.955  -0.021  -2.607  1.00  0.00     0.070 A 
ATOM     12  C   UNL     1       1.736   0.193  -1.949  1.00  0.00     0.040 A 
ATOM     13  C   UNL     1      -0.474   1.228  -2.220  1.00  0.00     0.052 A 
ATOM     14  C   UNL     1      -0.436  -3.589  -3.099  1.00  0.00     0.155 C 
ATOM     15  C   UNL     1      -3.419   0.449  -2.878  1.00  0.00     0.155 C 
ATOM     16  Br  UNL     1       3.600   0.266  -1.502  1.00  0.00    -0.049 Br
ENDBRANCH   1   4
BRANCH   1  17
ATOM     17  N   UNL     1       2.186   2.754   0.251  1.00  0.00    -0.280 N 
ATOM     18  H   UNL     1       3.174   3.066   0.384  1.00  0.00     0.180 HD
BRANCH  17  19
ATOM     19  C   UNL     1       1.530   2.045   1.315  1.00  0.00     0.051 A 
ATOM     20  C   UNL     1       2.298   1.562   2.401  1.00  0.00     0.027 A 
ATOM     21  C   UNL     1       0.134   1.823   1.305  1.00  0.00     0.052 A 
ATOM     22  C   UNL     1       1.690   0.849   3.447  1.00  0.00     0.008 A 
ATOM     23  C   UNL     1      -0.435   1.109   2.357  1.00  0.00     0.039 A 
ATOM     24  C   UNL     1       0.314   0.635   3.395  1.00  0.00    -0.023 A 
ATOM     25  N   UNL     1      -1.799   0.782   2.508  1.00  0.00    -0.384 N 
ATOM     26  C   UNL     1      -0.549  -0.086   4.371  1.00  0.00     0.059 C 
ATOM     27  C   UNL     1      -1.964   0.027   3.748  1.00  0.00     0.117 C 
ATOM     28  H   UNL     1      -2.563   1.035   1.844  1.00  0.00     0.160 HD
ENDBRANCH  17  19
ENDBRANCH   1  17
TORSDOF 3
