REMARK SMILES O=C(Nc1cccc(OC(F)F)c1)c1cccc(Nc2ncccn2)c1
REMARK SMILES IDX 4 1 5 2 6 3 7 4 8 5 13 6 3 7 1 8 2 9 14 11 15 12 26 13 16 14
REMARK SMILES IDX 18 15 17 16 19 17 20 19 21 20 25 21 22 22 24 23 23 24 9 25
REMARK SMILES IDX 10 26 11 27 12 28
REMARK H PARENT 3 10 19 18
ROOT
ATOM      1  C   UNL     1       3.208  -0.873  -1.158  1.00  0.00     0.045 A 
ATOM      2  C   UNL     1       3.413  -1.807  -2.188  1.00  0.00     0.026 A 
ATOM      3  C   UNL     1       4.706  -2.215  -2.522  1.00  0.00     0.006 A 
ATOM      4  C   UNL     1       5.806  -1.687  -1.843  1.00  0.00     0.047 A 
ATOM      5  C   UNL     1       5.626  -0.739  -0.830  1.00  0.00     0.128 A 
ATOM      6  C   UNL     1       4.320  -0.330  -0.495  1.00  0.00     0.072 A 
ENDROOT
BRANCH   1   7
ATOM      7  N   UNL     1       1.887  -0.419  -0.811  1.00  0.00    -0.322 N 
ATOM      8  O   UNL     1       0.822  -2.495  -0.916  1.00  0.00    -0.269 OA
ATOM      9  C   UNL     1       0.710  -1.238  -0.913  1.00  0.00     0.255 C 
ATOM     10  H   UNL     1       1.797   0.516  -0.353  1.00  0.00     0.170 HD
BRANCH   9  11
ATOM     11  C   UNL     1      -0.640  -0.625  -0.962  1.00  0.00     0.042 A 
ATOM     12  C   UNL     1      -0.810   0.718  -1.341  1.00  0.00     0.014 A 
ATOM     13  C   UNL     1      -1.778  -1.392  -0.648  1.00  0.00     0.040 A 
ATOM     14  C   UNL     1      -2.085   1.286  -1.381  1.00  0.00     0.003 A 
ATOM     15  C   UNL     1      -3.063  -0.833  -0.710  1.00  0.00     0.042 A 
ATOM     16  C   UNL     1      -3.207   0.520  -1.058  1.00  0.00     0.026 A 
BRANCH  15  17
ATOM     17  N   UNL     1      -4.200  -1.637  -0.352  1.00  0.00    -0.324 N 
ATOM     18  H   UNL     1      -4.062  -2.400   0.350  1.00  0.00     0.170 HD
BRANCH  17  19
ATOM     19  C   UNL     1      -5.488  -1.536  -0.976  1.00  0.00     0.227 A 
ATOM     20  N   UNL     1      -6.552  -2.180  -0.424  1.00  0.00    -0.221 NA
ATOM     21  N   UNL     1      -5.648  -0.848  -2.140  1.00  0.00    -0.221 NA
ATOM     22  C   UNL     1      -7.780  -2.130  -1.004  1.00  0.00     0.117 A 
ATOM     23  C   UNL     1      -6.860  -0.774  -2.750  1.00  0.00     0.117 A 
ATOM     24  C   UNL     1      -7.961  -1.418  -2.188  1.00  0.00     0.040 A 
ENDBRANCH  17  19
ENDBRANCH  15  17
ENDBRANCH   9  11
ENDBRANCH   1   7
BRANCH   5  25
ATOM     25  O   UNL     1       6.766  -0.233  -0.185  1.00  0.00    -0.435 OA
BRANCH  25  26
ATOM     26  C   UNL     1       6.747   0.753   0.843  1.00  0.00     0.542 C 
ATOM     27  F   UNL     1       8.033   0.944   1.308  1.00  0.00    -0.167 F 
ATOM     28  F   UNL     1       6.269   1.950   0.340  1.00  0.00    -0.167 F 
ENDBRANCH  25  26
ENDBRANCH   5  25
TORSDOF 6
