REMARK SMILES CCOC(=O)c1cc(S(=O)(=O)Nc2ccc(F)cc2CS(C)(=O)=O)cn1C
REMARK SMILES IDX 9 1 10 2 11 3 8 4 6 5 7 6 26 7 25 8 27 9 4 10 5 11 3 12 2 13
REMARK SMILES IDX 1 14 12 15 13 17 14 18 19 19 15 20 18 21 16 22 17 23 20 24
REMARK SMILES IDX 21 25 23 26 24 27 22 28
REMARK H PARENT 12 16
ROOT
ATOM      1  S   UNL     1      -0.742  -0.503  -3.128  1.00  0.00     0.263 S 
ATOM      2  O   UNL     1      -1.496   0.732  -3.530  1.00  0.00    -0.201 OA
ATOM      3  O   UNL     1      -0.045  -1.056  -4.340  1.00  0.00    -0.201 OA
ENDROOT
BRANCH   1   4
ATOM      4  C   UNL     1       0.465  -0.110  -1.916  1.00  0.00     0.106 A 
ATOM      5  C   UNL     1       1.466   0.675  -0.113  1.00  0.00     0.128 A 
ATOM      6  C   UNL     1       0.302   0.757  -0.856  1.00  0.00     0.057 A 
ATOM      7  N   UNL     1       2.323  -0.202  -0.693  1.00  0.00    -0.344 N 
ATOM      8  C   UNL     1       1.713  -0.683  -1.794  1.00  0.00     0.108 A 
ATOM      9  C   UNL     1       3.642  -0.613  -0.218  1.00  0.00     0.150 C 
BRANCH   5  10
ATOM     10  C   UNL     1       1.697   1.415   1.143  1.00  0.00     0.354 C 
ATOM     11  O   UNL     1       2.779   1.284   1.776  1.00  0.00    -0.244 OA
BRANCH  10  12
ATOM     12  O   UNL     1       0.697   2.263   1.627  1.00  0.00    -0.461 OA
BRANCH  12  13
ATOM     13  C   UNL     1       0.833   3.003   2.836  1.00  0.00     0.230 C 
ATOM     14  C   UNL     1      -0.424   3.823   3.075  1.00  0.00     0.049 C 
ENDBRANCH  12  13
ENDBRANCH  10  12
ENDBRANCH   5  10
ENDBRANCH   1   4
BRANCH   1  15
ATOM     15  N   UNL     1      -1.834  -1.700  -2.506  1.00  0.00    -0.279 N 
ATOM     16  H   UNL     1      -1.945  -2.575  -3.063  1.00  0.00     0.180 HD
BRANCH  15  17
ATOM     17  C   UNL     1      -2.390  -1.606  -1.185  1.00  0.00     0.053 A 
ATOM     18  C   UNL     1      -2.893  -0.375  -0.729  1.00  0.00     0.030 A 
ATOM     19  C   UNL     1      -2.444  -2.736  -0.327  1.00  0.00    -0.006 A 
ATOM     20  C   UNL     1      -3.409  -0.248   0.561  1.00  0.00     0.041 A 
ATOM     21  C   UNL     1      -2.960  -2.585   0.974  1.00  0.00     0.046 A 
ATOM     22  C   UNL     1      -3.438  -1.349   1.413  1.00  0.00     0.123 A 
ATOM     23  F   UNL     1      -3.932  -1.222   2.669  1.00  0.00    -0.207 F 
BRANCH  19  24
ATOM     24  C   UNL     1      -1.894  -4.084  -0.732  1.00  0.00     0.174 C 
BRANCH  24  25
ATOM     25  S   UNL     1      -0.106  -4.115  -0.655  1.00  0.00     0.151 S 
ATOM     26  O   UNL     1       0.462  -3.605  -1.948  1.00  0.00    -0.229 OA
ATOM     27  O   UNL     1       0.345  -5.534  -0.452  1.00  0.00    -0.229 OA
ATOM     28  C   UNL     1       0.507  -3.122   0.692  1.00  0.00     0.158 C 
ENDBRANCH  24  25
ENDBRANCH  19  24
ENDBRANCH  15  17
ENDBRANCH   1  15
TORSDOF 8
