REMARK SMILES Cc1nc(N2CCCN(c3ccncc3)CC2)c(C)c(-n2cccn2)n1
REMARK SMILES IDX 17 1 5 2 4 3 2 4 3 5 26 6 20 7 18 8 1 9 19 10 21 11 22 12
REMARK SMILES IDX 25 13 23 14 24 15 6 16 7 17 16 19 9 20 8 21 10 23 11 24
REMARK SMILES IDX 15 25 12 26 14 27 13 28
REMARK H PARENT
REMARK Flexibility Score:   55.900
ROOT
ATOM      1  C   UNL     1       0.642  -1.732  -0.467  1.00  0.00     0.139 C 
ENDROOT
BRANCH   1   2
ATOM      2  N   UNL     1      -0.138  -0.497  -0.543  1.00  0.00    -0.354 N 
BRANCH   2   3
ATOM      3  C   UNL     1      -0.569  -0.024  -1.826  1.00  0.00     0.137 A 
ATOM      4  C   UNL     1      -2.139  -0.141  -3.593  1.00  0.00     0.130 A 
ATOM      5  N   UNL     1      -1.697  -0.543  -2.376  1.00  0.00    -0.216 NA
ATOM      6  N   UNL     1      -1.447   0.797  -4.286  1.00  0.00    -0.214 NA
ATOM      7  C   UNL     1      -0.299   1.342  -3.802  1.00  0.00     0.162 A 
ATOM      8  C   UNL     1       0.158   0.967  -2.516  1.00  0.00     0.036 A 
ATOM      9  C   UNL     1      -3.411  -0.693  -4.146  1.00  0.00     0.090 C 
ATOM     10  C   UNL     1       1.374   1.598  -1.883  1.00  0.00     0.052 C 
BRANCH   7  11
ATOM     11  N   UNL     1       0.395   2.300  -4.614  1.00  0.00    -0.222 N 
ATOM     12  C   UNL     1       1.713   2.320  -4.897  1.00  0.00     0.117 A 
ATOM     13  N   UNL     1      -0.224   3.237  -5.314  1.00  0.00    -0.175 NA
ATOM     14  C   UNL     1       1.951   3.340  -5.792  1.00  0.00     0.042 A 
ATOM     15  C   UNL     1       0.709   3.894  -6.031  1.00  0.00     0.135 A 
ENDBRANCH   7  11
ENDBRANCH   2   3
BRANCH   2  16
ATOM     16  C   UNL     1      -0.754   0.053   0.666  1.00  0.00     0.120 C 
BRANCH  16  17
ATOM     17  C   UNL     1      -1.950  -0.803   1.100  1.00  0.00     0.043 CG0
ATOM     18  G   UNL     1      -1.549  -2.008   1.970  1.00  0.00     0.000 G0
ENDBRANCH  16  17
ENDBRANCH   2  16
ENDBRANCH   1   2
BRANCH   1  19
ATOM     19  C   UNL     1      -0.252  -2.910  -0.066  1.00  0.00     0.138 C 
BRANCH  19  20
ATOM     20  N   UNL     1      -0.519  -2.892   1.383  1.00  0.00    -0.370 N 
BRANCH  20  21
ATOM     21  C   UNL     1      -1.549  -2.008   1.970  1.00  0.00     0.118 CG0
ATOM     22  G   UNL     1      -1.950  -0.803   1.100  1.00  0.00     0.000 G0
ENDBRANCH  20  21
BRANCH  20  23
ATOM     23  C   UNL     1       0.197  -3.804   2.254  1.00  0.00     0.040 A 
ATOM     24  C   UNL     1       1.547  -4.125   2.014  1.00  0.00     0.046 A 
ATOM     25  C   UNL     1      -0.442  -4.391   3.363  1.00  0.00     0.046 A 
ATOM     26  C   UNL     1       2.215  -5.008   2.866  1.00  0.00     0.113 A 
ATOM     27  C   UNL     1       0.264  -5.271   4.186  1.00  0.00     0.113 A 
ATOM     28  N   UNL     1       1.565  -5.558   3.925  1.00  0.00    -0.265 NA
ENDBRANCH  20  23
ENDBRANCH  19  20
ENDBRANCH   1  19
TORSDOF 3
