REMARK SMILES Nc1ccc(C(=O)Nc2ccc(Cl)cc2OCC(F)(F)F)cn1
REMARK SMILES IDX 9 1 10 2 11 3 12 4 13 5 14 6 15 7 8 8 6 9 7 10 5 12 2 13
REMARK SMILES IDX 3 14 23 15 4 16 22 17 1 18 16 21 17 22 18 23 19 24 20 25
REMARK SMILES IDX 21 26
REMARK H PARENT 8 11 1 19 1 20
ROOT
ATOM      1  C   UNL     1      -1.011   1.103  -2.129  1.00  0.00     0.084 A 
ATOM      2  C   UNL     1      -1.493   2.181  -2.885  1.00  0.00     0.031 A 
ATOM      3  C   UNL     1      -1.521   2.113  -4.279  1.00  0.00     0.023 A 
ATOM      4  C   UNL     1      -1.081   0.960  -4.931  1.00  0.00     0.044 A 
ATOM      5  Cl  UNL     1      -1.117   0.879  -6.683  1.00  0.00    -0.084 Cl
ATOM      6  C   UNL     1      -0.625  -0.134  -4.189  1.00  0.00     0.069 A 
ATOM      7  C   UNL     1      -0.594  -0.080  -2.780  1.00  0.00     0.144 A 
ENDROOT
BRANCH   1   8
ATOM      8  N   UNL     1      -0.996   1.209  -0.697  1.00  0.00    -0.319 N 
ATOM      9  C   UNL     1       0.141   0.836   0.100  1.00  0.00     0.257 C 
ATOM     10  O   UNL     1       1.272   0.721  -0.447  1.00  0.00    -0.269 OA
ATOM     11  H   UNL     1      -1.763   1.751  -0.240  1.00  0.00     0.170 HD
BRANCH   9  12
ATOM     12  C   UNL     1       0.010   0.620   1.561  1.00  0.00     0.058 A 
ATOM     13  C   UNL     1      -0.247   0.190   4.306  1.00  0.00     0.123 A 
ATOM     14  C   UNL     1       1.021   0.409   3.759  1.00  0.00     0.047 A 
ATOM     15  N   UNL     1      -1.339   0.181   3.496  1.00  0.00    -0.239 NA
ATOM     16  C   UNL     1       1.147   0.620   2.385  1.00  0.00     0.019 A 
ATOM     17  C   UNL     1      -1.242   0.386   2.155  1.00  0.00     0.127 A 
BRANCH  13  18
ATOM     18  N   UNL     1      -0.403  -0.029   5.709  1.00  0.00    -0.384 N 
ATOM     19  H   UNL     1       0.423  -0.027   6.348  1.00  0.00     0.158 HD
ATOM     20  H   UNL     1      -1.352  -0.194   6.112  1.00  0.00     0.158 HD
ENDBRANCH  13  18
ENDBRANCH   9  12
ENDBRANCH   1   8
BRANCH   7  21
ATOM     21  O   UNL     1      -0.198  -1.178  -1.995  1.00  0.00    -0.482 OA
BRANCH  21  22
ATOM     22  C   UNL     1       0.364  -2.401  -2.473  1.00  0.00     0.344 C 
BRANCH  22  23
ATOM     23  C   UNL     1       1.860  -2.250  -2.746  1.00  0.00     0.422 C 
ATOM     24  F   UNL     1       2.508  -1.851  -1.591  1.00  0.00    -0.167 F 
ATOM     25  F   UNL     1       2.085  -1.313  -3.737  1.00  0.00    -0.167 F 
ATOM     26  F   UNL     1       2.378  -3.465  -3.154  1.00  0.00    -0.167 F 
ENDBRANCH  22  23
ENDBRANCH  21  22
ENDBRANCH   7  21
TORSDOF 6
