REMARK SMILES CCCn1nc(NCc2nc(CC3CC3)no2)c2ccccc21
REMARK SMILES IDX 7 1 6 3 4 4 5 5 23 6 22 7 18 8 21 9 19 10 20 11 3 12 2 13
REMARK SMILES IDX 1 14 8 15 9 16 10 17 17 18 11 19 16 20 12 21 13 22 14 23
REMARK SMILES IDX 15 24
REMARK H PARENT 7 2
ROOT
ATOM      1  N   UNL     1       0.221   1.300   2.602  1.00  0.00    -0.359 N 
ATOM      2  H   UNL     1       1.006   1.293   3.291  1.00  0.00     0.162 HD
ENDROOT
BRANCH   1   3
ATOM      3  C   UNL     1      -0.421   0.066   2.257  1.00  0.00     0.156 A 
ATOM      4  N   UNL     1      -1.809  -1.322   1.340  1.00  0.00    -0.263 N 
ATOM      5  N   UNL     1      -1.502  -0.033   1.448  1.00  0.00    -0.154 NA
ATOM      6  C   UNL     1      -0.921  -2.043   2.057  1.00  0.00     0.070 A 
ATOM      7  C   UNL     1      -0.826  -3.429   2.206  1.00  0.00     0.029 A 
ATOM      8  C   UNL     1      -0.032  -1.195   2.659  1.00  0.00     0.044 A 
ATOM      9  C   UNL     1       0.216  -3.929   3.010  1.00  0.00     0.002 A 
ATOM     10  C   UNL     1       1.014  -1.656   3.455  1.00  0.00     0.014 A 
ATOM     11  C   UNL     1       1.130  -3.047   3.632  1.00  0.00     0.001 A 
BRANCH   4  12
ATOM     12  C   UNL     1      -2.891  -1.827   0.498  1.00  0.00     0.145 C 
BRANCH  12  13
ATOM     13  C   UNL     1      -2.368  -2.115  -0.910  1.00  0.00     0.020 C 
ATOM     14  C   UNL     1      -3.465  -2.689  -1.801  1.00  0.00     0.006 C 
ENDBRANCH  12  13
ENDBRANCH   4  12
ENDBRANCH   1   3
BRANCH   1  15
ATOM     15  C   UNL     1      -0.120   2.557   1.944  1.00  0.00     0.215 C 
BRANCH  15  16
ATOM     16  C   UNL     1       0.527   2.617   0.599  1.00  0.00     0.245 A 
ATOM     17  N   UNL     1       0.150   1.865  -0.452  1.00  0.00    -0.195 NA
ATOM     18  O   UNL     1       1.557   3.373   0.310  1.00  0.00    -0.337 OA
ATOM     19  C   UNL     1       1.041   2.257  -1.386  1.00  0.00     0.172 A 
ATOM     20  N   UNL     1       1.913   3.172  -0.922  1.00  0.00    -0.062 NA
BRANCH  19  21
ATOM     21  C   UNL     1       1.126   1.649  -2.748  1.00  0.00     0.084 C 
BRANCH  21  22
ATOM     22  C   UNL     1       2.047   0.425  -2.708  1.00  0.00    -0.003 C 
ATOM     23  C   UNL     1       1.794  -0.608  -3.795  1.00  0.00     0.004 C 
ATOM     24  C   UNL     1       1.373  -0.894  -2.362  1.00  0.00     0.004 C 
ENDBRANCH  21  22
ENDBRANCH  19  21
ENDBRANCH  15  16
ENDBRANCH   1  15
TORSDOF 7
