REMARK SMILES CN1CC[C@@H]2[C@H]1CCCN2C(=O)[C@@H]1CCN(c2ccc(-c3nn[nH]n3)cc2F)C1
REMARK SMILES IDX 13 1 14 2 15 3 16 4 29 5 11 6 12 7 10 8 2 9 3 10 6 11 4 12
REMARK SMILES IDX 5 13 7 14 8 15 9 16 1 17 17 18 18 19 27 20 19 21 26 22 20 23
REMARK SMILES IDX 28 24 21 25 22 26 25 27 23 28 24 29
REMARK H PARENT 24 30
ROOT
ATOM      1  C   UNL     1       1.749   1.871  -0.296  1.00  0.00     0.100 C 
ATOM      2  C   UNL     1       2.109   1.985  -1.786  1.00  0.00     0.037 C 
ATOM      3  C   UNL     1       2.022   0.567  -2.338  1.00  0.00     0.117 C 
ATOM      4  N   UNL     1       2.109  -0.305  -1.178  1.00  0.00    -0.368 N 
ATOM      5  C   UNL     1       2.117   0.432   0.076  1.00  0.00     0.130 C 
ENDROOT
BRANCH   1   6
ATOM      6  C   UNL     1       0.280   2.135  -0.021  1.00  0.00     0.227 C 
ATOM      7  O   UNL     1      -0.551   2.195  -0.968  1.00  0.00    -0.274 OA
BRANCH   6   8
ATOM      8  N   UNL     1      -0.186   2.303   1.329  1.00  0.00    -0.338 N 
ATOM      9  N   UNL     1      -3.310   1.265   2.495  1.00  0.00    -0.301 NA
ATOM     10  C   UNL     1      -3.076   0.756   1.147  1.00  0.00     0.086 C 
ATOM     11  C   UNL     1      -2.018   1.808   2.978  1.00  0.00     0.079 C 
ATOM     12  C   UNL     1      -1.656   0.243   1.155  1.00  0.00     0.042 C 
ATOM     13  C   UNL     1      -0.907   1.230   2.058  1.00  0.00     0.103 C 
ATOM     14  C   UNL     1      -1.948   3.354   3.082  1.00  0.00     0.023 C 
ATOM     15  C   UNL     1      -0.502   3.789   3.307  1.00  0.00     0.023 C 
ATOM     16  C   UNL     1       0.362   3.440   2.087  1.00  0.00     0.120 C 
ATOM     17  C   UNL     1      -4.489   2.144   2.566  1.00  0.00     0.105 C 
ENDBRANCH   6   8
ENDBRANCH   1   6
BRANCH   4  18
ATOM     18  C   UNL     1       2.299  -1.728  -1.262  1.00  0.00     0.073 A 
ATOM     19  C   UNL     1       3.304  -2.260  -2.083  1.00  0.00     0.030 A 
ATOM     20  C   UNL     1       1.478  -2.605  -0.531  1.00  0.00     0.147 A 
ATOM     21  C   UNL     1       3.499  -3.643  -2.162  1.00  0.00     0.014 A 
ATOM     22  C   UNL     1       1.679  -3.987  -0.605  1.00  0.00     0.053 A 
ATOM     23  C   UNL     1       2.691  -4.518  -1.420  1.00  0.00     0.026 A 
ATOM     24  F   UNL     1       0.446  -2.133   0.215  1.00  0.00    -0.205 F 
BRANCH  23  25
ATOM     25  C   UNL     1       2.905  -5.979  -1.493  1.00  0.00     0.204 A 
ATOM     26  N   UNL     1       3.849  -6.576  -2.249  1.00  0.00    -0.108 NA
ATOM     27  N   UNL     1       2.189  -6.889  -0.803  1.00  0.00    -0.134 NA
ATOM     28  N   UNL     1       3.705  -7.871  -2.015  1.00  0.00    -0.050 NA
ATOM     29  N   UNL     1       2.719  -8.048  -1.154  1.00  0.00    -0.177 N 
ATOM     30  H   UNL     1       2.398  -8.978  -0.803  1.00  0.00     0.216 HD
ENDBRANCH  23  25
ENDBRANCH   4  18
TORSDOF 4
