REMARK SMILES C[C@@H](Nc1nc2ccccc2n2nnnc12)c1cnccn1
REMARK SMILES IDX 1 1 2 2 3 3 4 5 5 6 16 7 6 8 15 9 12 10 7 11 11 12 14 13
REMARK SMILES IDX 13 14 8 15 10 16 9 17 17 18 18 19 22 20 19 21 21 22 20 23
REMARK H PARENT 3 4
ROOT
ATOM      1  C   UNL     1      -3.728  -0.968  -1.577  1.00  0.00     0.038 C 
ATOM      2  C   UNL     1      -2.332  -1.014  -0.948  1.00  0.00     0.128 C 
ENDROOT
BRANCH   2   3
ATOM      3  N   UNL     1      -1.454  -0.009  -1.558  1.00  0.00    -0.359 N 
ATOM      4  H   UNL     1      -1.863   0.712  -2.195  1.00  0.00     0.162 HD
BRANCH   3   5
ATOM      5  C   UNL     1      -0.040   0.017  -1.307  1.00  0.00     0.174 A 
ATOM      6  N   UNL     1       0.550  -0.913  -0.493  1.00  0.00    -0.225 NA
ATOM      7  C   UNL     1       0.783   0.991  -1.872  1.00  0.00     0.222 A 
ATOM      8  C   UNL     1       1.894  -0.899  -0.234  1.00  0.00     0.091 A 
ATOM      9  N   UNL     1       0.449   2.003  -2.691  1.00  0.00    -0.105 NA
ATOM     10  N   UNL     1       2.091   1.007  -1.622  1.00  0.00    -0.188 N 
ATOM     11  C   UNL     1       2.471  -1.858   0.603  1.00  0.00     0.031 A 
ATOM     12  C   UNL     1       2.708   0.102  -0.820  1.00  0.00     0.095 A 
ATOM     13  N   UNL     1       1.602   2.627  -2.926  1.00  0.00    -0.023 NA
ATOM     14  N   UNL     1       2.600   2.029  -2.281  1.00  0.00    -0.039 NA
ATOM     15  C   UNL     1       3.848  -1.825   0.857  1.00  0.00     0.002 A 
ATOM     16  C   UNL     1       4.085   0.132  -0.564  1.00  0.00     0.031 A 
ATOM     17  C   UNL     1       4.651  -0.835   0.275  1.00  0.00     0.002 A 
ENDBRANCH   3   5
ENDBRANCH   2   3
BRANCH   2  18
ATOM     18  C   UNL     1      -2.421  -0.804   0.543  1.00  0.00     0.081 A 
ATOM     19  C   UNL     1      -2.727   0.453   1.089  1.00  0.00     0.137 A 
ATOM     20  N   UNL     1      -2.212  -1.853   1.383  1.00  0.00    -0.256 NA
ATOM     21  N   UNL     1      -2.798   0.597   2.439  1.00  0.00    -0.261 NA
ATOM     22  C   UNL     1      -2.284  -1.707   2.732  1.00  0.00     0.131 A 
ATOM     23  C   UNL     1      -2.583  -0.455   3.271  1.00  0.00     0.131 A 
ENDBRANCH   2  18
TORSDOF 3
