REMARK SMILES C[C@H]1CC(C2CN(C(=O)Nc3cc(-c4ccc(F)cc4)n(C)n3)C2)=NO1
REMARK SMILES IDX 5 1 6 2 7 3 24 4 8 5 9 6 10 7 4 9 2 10 3 11 26 12 25 13 1 14
REMARK SMILES IDX 11 15 12 16 23 17 13 18 21 19 22 20 14 21 15 22 20 23 16 24
REMARK SMILES IDX 19 25 17 26 18 27
REMARK H PARENT 10 8
ROOT
ATOM      1  C   UNL     1      -3.229   3.088   1.130  1.00  0.00     0.077 C 
ATOM      2  C   UNL     1      -2.713   1.824   0.504  1.00  0.00     0.133 C 
ATOM      3  N   UNL     1      -1.369   2.341   0.190  1.00  0.00    -0.323 N 
ATOM      4  C   UNL     1      -1.847   3.586   0.817  1.00  0.00     0.133 C 
ATOM      5  C   UNL     1      -0.174   1.868  -0.427  1.00  0.00     0.323 C 
ATOM      6  O   UNL     1       0.815   2.641  -0.531  1.00  0.00    -0.248 OA
ATOM      7  N   UNL     1      -0.111   0.522  -0.919  1.00  0.00    -0.291 N 
ATOM      8  H   UNL     1      -0.951  -0.088  -0.799  1.00  0.00     0.173 HD
ENDROOT
BRANCH   1   9
ATOM      9  C   UNL     1      -3.545   2.979   2.599  1.00  0.00     0.068 C 
ATOM     10  C   UNL     1      -4.514   2.400   4.666  1.00  0.00     0.207 C 
ATOM     11  C   UNL     1      -4.441   1.942   3.198  1.00  0.00     0.103 C 
ATOM     12  O   UNL     1      -3.761   3.603   4.671  1.00  0.00    -0.392 OA
ATOM     13  N   UNL     1      -3.229   3.899   3.444  1.00  0.00    -0.095 NA
ATOM     14  C   UNL     1      -5.944   2.671   5.130  1.00  0.00     0.056 C 
ENDBRANCH   1   9
BRANCH   7  15
ATOM     15  C   UNL     1       1.040  -0.037  -1.567  1.00  0.00     0.156 A 
ATOM     16  C   UNL     1       1.133  -1.334  -2.030  1.00  0.00     0.077 A 
ATOM     17  N   UNL     1       2.179   0.636  -1.819  1.00  0.00    -0.155 NA
ATOM     18  C   UNL     1       2.406  -1.410  -2.563  1.00  0.00     0.070 A 
ATOM     19  N   UNL     1       3.003  -0.200  -2.432  1.00  0.00    -0.266 N 
ATOM     20  C   UNL     1       4.328   0.199  -2.897  1.00  0.00     0.174 C 
BRANCH  18  21
ATOM     21  C   UNL     1       2.994  -2.615  -3.192  1.00  0.00     0.000 A 
ATOM     22  C   UNL     1       2.206  -3.423  -4.031  1.00  0.00     0.013 A 
ATOM     23  C   UNL     1       4.321  -2.997  -2.925  1.00  0.00     0.013 A 
ATOM     24  C   UNL     1       2.746  -4.572  -4.617  1.00  0.00     0.040 A 
ATOM     25  C   UNL     1       4.857  -4.146  -3.515  1.00  0.00     0.040 A 
ATOM     26  C   UNL     1       4.072  -4.931  -4.364  1.00  0.00     0.123 A 
ATOM     27  F   UNL     1       4.593  -6.046  -4.931  1.00  0.00    -0.207 F 
ENDBRANCH  18  21
ENDBRANCH   7  15
TORSDOF 3
