REMARK SMILES O=C(Nc1nc2ccccc2n1C1CCCC1)c1coc(C2CCOCC2)n1
REMARK SMILES IDX 1 1 2 2 3 3 18 5 19 6 28 7 20 8 21 9 22 10 23 11 27 12 24 13
REMARK SMILES IDX 26 14 25 15 4 16 5 17 12 18 6 19 11 20 7 21 10 22 8 23 9 24
REMARK SMILES IDX 13 25 14 26 17 27 15 28 16 29
REMARK H PARENT 3 4
ROOT
ATOM      1  O   UNL     1       0.413   1.633   3.577  1.00  0.00    -0.267 OA
ATOM      2  C   UNL     1       0.678   0.861   2.615  1.00  0.00     0.279 C 
ATOM      3  N   UNL     1      -0.043   0.959   1.375  1.00  0.00    -0.290 N 
ATOM      4  H   UNL     1       0.235   0.308   0.614  1.00  0.00     0.173 HD
ENDROOT
BRANCH   2   5
ATOM      5  C   UNL     1       1.744  -0.141   2.764  1.00  0.00     0.167 A 
ATOM      6  C   UNL     1       2.530  -0.344   3.878  1.00  0.00     0.231 A 
ATOM      7  N   UNL     1       2.101  -1.009   1.800  1.00  0.00    -0.208 NA
ATOM      8  O   UNL     1       3.358  -1.321   3.601  1.00  0.00    -0.448 OA
ATOM      9  C   UNL     1       3.105  -1.708   2.370  1.00  0.00     0.198 A 
BRANCH   9  10
ATOM     10  C   UNL     1       3.832  -2.830   1.683  1.00  0.00     0.080 C 
ATOM     11  C   UNL     1       2.964  -4.104   1.686  1.00  0.00     0.042 C 
ATOM     12  C   UNL     1       4.254  -2.439   0.249  1.00  0.00     0.042 C 
ATOM     13  C   UNL     1       3.343  -5.008   0.502  1.00  0.00     0.161 C 
ATOM     14  C   UNL     1       3.256  -2.990  -0.784  1.00  0.00     0.161 C 
ATOM     15  O   UNL     1       3.147  -4.409  -0.776  1.00  0.00    -0.381 OA
ENDBRANCH   9  10
ENDBRANCH   2   5
BRANCH   3  16
ATOM     16  C   UNL     1      -1.107   1.897   1.133  1.00  0.00     0.211 A 
ATOM     17  N   UNL     1      -1.609   2.698   2.109  1.00  0.00    -0.213 NA
ATOM     18  N   UNL     1      -1.719   2.062  -0.081  1.00  0.00    -0.307 N 
ATOM     19  C   UNL     1      -2.572   3.385   1.474  1.00  0.00     0.091 A 
ATOM     20  C   UNL     1      -2.649   3.009   0.163  1.00  0.00     0.070 A 
ATOM     21  C   UNL     1      -3.413   4.352   2.019  1.00  0.00     0.031 A 
ATOM     22  C   UNL     1      -3.589   3.580  -0.704  1.00  0.00     0.028 A 
ATOM     23  C   UNL     1      -4.365   4.946   1.172  1.00  0.00     0.002 A 
ATOM     24  C   UNL     1      -4.453   4.561  -0.183  1.00  0.00     0.002 A 
BRANCH  18  25
ATOM     25  C   UNL     1      -1.463   1.377  -1.364  1.00  0.00     0.091 C 
ATOM     26  C   UNL     1      -0.009   1.513  -1.834  1.00  0.00     0.025 C 
ATOM     27  C   UNL     1      -1.780  -0.116  -1.299  1.00  0.00     0.025 C 
ATOM     28  C   UNL     1       0.464   0.112  -2.214  1.00  0.00     0.002 C 
ATOM     29  C   UNL     1      -0.767  -0.785  -2.213  1.00  0.00     0.002 C 
ENDBRANCH  18  25
ENDBRANCH   3  16
TORSDOF 4
