REMARK SMILES O=C(NCCc1csc(-c2ccccc2)n1)c1ccc(F)c(F)c1
REMARK SMILES IDX 4 1 3 2 1 3 2 4 17 6 18 7 24 8 19 9 22 10 20 11 23 12 21 13
REMARK SMILES IDX 5 14 6 15 7 16 16 17 8 18 9 19 10 20 11 21 15 22 12 23 14 24
REMARK SMILES IDX 13 25
REMARK H PARENT 3 5
ROOT
ATOM      1  C   UNL     1       1.474  -2.864  -0.538  1.00  0.00     0.122 C 
ENDROOT
BRANCH   1   2
ATOM      2  N   UNL     1       0.196  -2.351  -0.041  1.00  0.00    -0.352 N 
ATOM      3  O   UNL     1       0.536  -3.064   2.152  1.00  0.00    -0.269 OA
ATOM      4  C   UNL     1      -0.116  -2.331   1.359  1.00  0.00     0.251 C 
ATOM      5  H   UNL     1      -0.518  -2.008  -0.722  1.00  0.00     0.163 HD
BRANCH   4   6
ATOM      6  C   UNL     1      -1.195  -1.461   1.883  1.00  0.00     0.042 A 
ATOM      7  C   UNL     1      -1.822  -1.768   3.104  1.00  0.00     0.017 A 
ATOM      8  C   UNL     1      -1.588  -0.301   1.187  1.00  0.00     0.056 A 
ATOM      9  C   UNL     1      -2.834  -0.944   3.607  1.00  0.00     0.043 A 
ATOM     10  C   UNL     1      -2.599   0.521   1.694  1.00  0.00     0.159 A 
ATOM     11  C   UNL     1      -3.224   0.198   2.902  1.00  0.00     0.158 A 
ATOM     12  F   UNL     1      -2.966   1.636   1.016  1.00  0.00    -0.204 F 
ATOM     13  F   UNL     1      -4.204   0.995   3.395  1.00  0.00    -0.204 F 
ENDBRANCH   4   6
ENDBRANCH   1   2
BRANCH   1  14
ATOM     14  C   UNL     1       1.757  -2.363  -1.959  1.00  0.00     0.078 C 
BRANCH  14  15
ATOM     15  C   UNL     1       1.904  -0.869  -1.979  1.00  0.00     0.054 A 
ATOM     16  C   UNL     1       3.127  -0.222  -1.825  1.00  0.00     0.091 A 
ATOM     17  N   UNL     1       0.820  -0.048  -2.043  1.00  0.00    -0.241 NA
ATOM     18  S   UNL     1       2.825   1.431  -1.784  1.00  0.00    -0.122 S 
ATOM     19  C   UNL     1       1.156   1.258  -1.955  1.00  0.00     0.123 A 
BRANCH  19  20
ATOM     20  C   UNL     1       0.164   2.357  -1.959  1.00  0.00     0.010 A 
ATOM     21  C   UNL     1      -1.211   2.065  -2.047  1.00  0.00     0.011 A 
ATOM     22  C   UNL     1       0.569   3.701  -1.862  1.00  0.00     0.011 A 
ATOM     23  C   UNL     1      -2.156   3.096  -2.035  1.00  0.00     0.001 A 
ATOM     24  C   UNL     1      -0.380   4.728  -1.852  1.00  0.00     0.001 A 
ATOM     25  C   UNL     1      -1.741   4.425  -1.937  1.00  0.00     0.000 A 
ENDBRANCH  19  20
ENDBRANCH  14  15
ENDBRANCH   1  14
TORSDOF 5
