REMARK SMILES CCN(Cc1cn(Cc2nccs2)nn1)c1cccc(CO)c1
REMARK SMILES IDX 3 1 2 2 1 3 4 4 5 5 6 6 15 7 7 8 14 9 8 10 9 11 10 12 13 13
REMARK SMILES IDX 11 14 12 15 16 16 17 17 23 18 18 19 20 20 19 21 21 22 22 23
REMARK H PARENT 22 24
ROOT
ATOM      1  N   UNL     1      -0.764  -0.860  -0.939  1.00  0.00    -0.366 N 
ENDROOT
BRANCH   1   2
ATOM      2  C   UNL     1      -1.200   0.159  -1.910  1.00  0.00     0.113 C 
ATOM      3  C   UNL     1      -2.310  -0.372  -2.815  1.00  0.00     0.027 C 
ENDBRANCH   1   2
BRANCH   1   4
ATOM      4  C   UNL     1      -1.675  -1.289   0.136  1.00  0.00     0.176 C 
BRANCH   4   5
ATOM      5  C   UNL     1      -2.030  -0.141   1.030  1.00  0.00     0.102 A 
ATOM      6  C   UNL     1      -1.251   0.405   2.026  1.00  0.00     0.137 A 
ATOM      7  N   UNL     1      -3.150   0.602   0.908  1.00  0.00    -0.134 NA
ATOM      8  N   UNL     1      -1.940   1.458   2.497  1.00  0.00    -0.245 N 
ATOM      9  N   UNL     1      -3.067   1.568   1.812  1.00  0.00    -0.067 NA
BRANCH   8  10
ATOM     10  C   UNL     1      -1.488   2.413   3.501  1.00  0.00     0.213 C 
BRANCH  10  11
ATOM     11  C   UNL     1      -0.595   3.428   2.867  1.00  0.00     0.114 A 
ATOM     12  N   UNL     1       0.744   3.279   2.760  1.00  0.00    -0.248 NA
ATOM     13  S   UNL     1      -1.125   4.814   2.077  1.00  0.00    -0.125 S 
ATOM     14  C   UNL     1       1.312   4.302   2.068  1.00  0.00     0.123 A 
ATOM     15  C   UNL     1       0.424   5.266   1.604  1.00  0.00     0.087 A 
ENDBRANCH  10  11
ENDBRANCH   8  10
ENDBRANCH   4   5
ENDBRANCH   1   4
BRANCH   1  16
ATOM     16  C   UNL     1       0.527  -1.492  -1.088  1.00  0.00     0.037 A 
ATOM     17  C   UNL     1       0.972  -1.923  -2.351  1.00  0.00     0.026 A 
ATOM     18  C   UNL     1       1.365  -1.673   0.026  1.00  0.00     0.032 A 
ATOM     19  C   UNL     1       2.227  -2.519  -2.494  1.00  0.00     0.003 A 
ATOM     20  C   UNL     1       2.620  -2.286  -0.112  1.00  0.00    -0.021 A 
ATOM     21  C   UNL     1       3.052  -2.696  -1.381  1.00  0.00     0.006 A 
BRANCH  20  22
ATOM     22  C   UNL     1       3.524  -2.436   1.081  1.00  0.00     0.191 C 
BRANCH  22  23
ATOM     23  O   UNL     1       4.365  -1.321   1.190  1.00  0.00    -0.392 OA
ATOM     24  H   UNL     1       3.811  -0.583   1.558  1.00  0.00     0.211 HD
ENDBRANCH  22  23
ENDBRANCH  20  22
ENDBRANCH   1  16
TORSDOF 8
