REMARK SMILES O=S1(=O)CCCN1c1cccc(CNc2ncnc3nc[nH]c23)c1
REMARK SMILES IDX 13 1 12 2 8 3 9 4 24 5 10 6 11 7 7 8 1 9 2 10 3 11 4 12 5 13
REMARK SMILES IDX 6 14 14 15 15 17 16 18 23 19 17 20 22 21 19 22 18 23 21 24
REMARK SMILES IDX 20 25
REMARK H PARENT 14 16 22 26
ROOT
ATOM      1  C   UNL     1       0.274   3.059  -0.534  1.00  0.00     0.150 C 
ENDROOT
BRANCH   1   2
ATOM      2  C   UNL     1      -0.834   2.073  -0.798  1.00  0.00    -0.027 A 
ATOM      3  C   UNL     1      -1.570  -0.083  -1.689  1.00  0.00     0.052 A 
ATOM      4  C   UNL     1      -2.878   0.212  -1.259  1.00  0.00     0.027 A 
ATOM      5  C   UNL     1      -0.554   0.865  -1.455  1.00  0.00     0.032 A 
ATOM      6  C   UNL     1      -3.158   1.414  -0.606  1.00  0.00     0.003 A 
ATOM      7  C   UNL     1      -2.142   2.341  -0.373  1.00  0.00     0.006 A 
BRANCH   3   8
ATOM      8  N   UNL     1      -1.276  -1.330  -2.361  1.00  0.00    -0.270 N 
ATOM      9  O   UNL     1      -2.703  -3.088  -0.952  1.00  0.00    -0.206 OA
ATOM     10  S   UNL     1      -2.311  -2.700  -2.349  1.00  0.00     0.235 S 
ATOM     11  O   UNL     1      -3.514  -2.487  -3.224  1.00  0.00    -0.206 OA
ATOM     12  C   UNL     1      -1.194  -3.861  -3.057  1.00  0.00     0.162 C 
ATOM     13  C   UNL     1      -0.113  -3.000  -3.716  1.00  0.00     0.041 C 
ATOM     14  C   UNL     1       0.010  -1.650  -2.976  1.00  0.00     0.136 C 
ENDBRANCH   3   8
ENDBRANCH   1   2
BRANCH   1  15
ATOM     15  N   UNL     1       1.248   2.491   0.396  1.00  0.00    -0.364 N 
ATOM     16  H   UNL     1       2.188   2.234   0.023  1.00  0.00     0.162 HD
BRANCH  15  17
ATOM     17  C   UNL     1       0.949   2.277   1.784  1.00  0.00     0.155 A 
ATOM     18  N   UNL     1      -0.249   2.670   2.316  1.00  0.00    -0.217 NA
ATOM     19  C   UNL     1       1.855   1.661   2.644  1.00  0.00     0.128 A 
ATOM     20  C   UNL     1      -0.548   2.467   3.639  1.00  0.00     0.226 A 
ATOM     21  N   UNL     1       3.080   1.173   2.413  1.00  0.00    -0.340 N 
ATOM     22  C   UNL     1       1.540   1.469   3.946  1.00  0.00     0.182 A 
ATOM     23  N   UNL     1       0.353   1.859   4.468  1.00  0.00    -0.215 NA
ATOM     24  C   UNL     1       3.470   0.693   3.621  1.00  0.00     0.199 A 
ATOM     25  N   UNL     1       2.540   0.857   4.601  1.00  0.00    -0.217 NA
ATOM     26  H   UNL     1       3.620   1.157   1.521  1.00  0.00     0.168 HD
ENDBRANCH  15  17
ENDBRANCH   1  15
TORSDOF 4
