REMARK SMILES O=C(Nc1cccc(OCCF)c1)c1ccc(Nc2ncccn2)cc1
REMARK SMILES IDX 4 1 5 2 6 3 7 4 8 5 13 6 3 7 1 8 2 9 14 11 15 12 26 13 16 14
REMARK SMILES IDX 25 15 17 16 18 17 19 19 20 20 24 21 21 22 23 23 22 24 9 25
REMARK SMILES IDX 10 26 11 27 12 28
REMARK H PARENT 3 10 18 18
ROOT
ATOM      1  C   UNL     1      -0.256   2.747  -1.685  1.00  0.00     0.045 A 
ATOM      2  C   UNL     1      -1.138   3.766  -2.071  1.00  0.00     0.026 A 
ATOM      3  C   UNL     1      -0.648   5.015  -2.456  1.00  0.00     0.006 A 
ATOM      4  C   UNL     1       0.726   5.263  -2.445  1.00  0.00     0.046 A 
ATOM      5  C   UNL     1       1.624   4.271  -2.038  1.00  0.00     0.121 A 
ATOM      6  C   UNL     1       1.127   3.009  -1.655  1.00  0.00     0.072 A 
ENDROOT
BRANCH   1   7
ATOM      7  N   UNL     1      -0.785   1.474  -1.275  1.00  0.00    -0.322 N 
ATOM      8  O   UNL     1       0.802   0.130  -2.337  1.00  0.00    -0.269 OA
ATOM      9  C   UNL     1      -0.092   0.227  -1.452  1.00  0.00     0.255 C 
ATOM     10  H   UNL     1      -1.773   1.442  -0.935  1.00  0.00     0.170 HD
BRANCH   9  11
ATOM     11  C   UNL     1      -0.447  -0.963  -0.640  1.00  0.00     0.040 A 
ATOM     12  C   UNL     1      -1.139  -0.828   0.577  1.00  0.00     0.016 A 
ATOM     13  C   UNL     1      -0.079  -2.249  -1.072  1.00  0.00     0.016 A 
ATOM     14  C   UNL     1      -1.462  -1.955   1.339  1.00  0.00     0.027 A 
ATOM     15  C   UNL     1      -0.405  -3.375  -0.310  1.00  0.00     0.027 A 
ATOM     16  C   UNL     1      -1.081  -3.237   0.909  1.00  0.00     0.041 A 
BRANCH  16  17
ATOM     17  N   UNL     1      -1.423  -4.413   1.663  1.00  0.00    -0.324 N 
ATOM     18  H   UNL     1      -1.594  -5.301   1.139  1.00  0.00     0.170 HD
BRANCH  17  19
ATOM     19  C   UNL     1      -1.437  -4.477   3.096  1.00  0.00     0.227 A 
ATOM     20  N   UNL     1      -0.863  -3.495   3.845  1.00  0.00    -0.221 NA
ATOM     21  N   UNL     1      -1.985  -5.558   3.714  1.00  0.00    -0.221 NA
ATOM     22  C   UNL     1      -0.848  -3.565   5.202  1.00  0.00     0.117 A 
ATOM     23  C   UNL     1      -1.990  -5.665   5.068  1.00  0.00     0.117 A 
ATOM     24  C   UNL     1      -1.418  -4.661   5.847  1.00  0.00     0.040 A 
ENDBRANCH  17  19
ENDBRANCH  16  17
ENDBRANCH   9  11
ENDBRANCH   1   7
BRANCH   5  25
ATOM     25  O   UNL     1       2.994   4.583  -2.035  1.00  0.00    -0.491 OA
BRANCH  25  26
ATOM     26  C   UNL     1       4.040   3.735  -1.558  1.00  0.00     0.263 C 
BRANCH  26  27
ATOM     27  C   UNL     1       4.078   3.723  -0.033  1.00  0.00     0.256 C 
ATOM     28  F   UNL     1       4.281   5.005   0.444  1.00  0.00    -0.247 F 
ENDBRANCH  26  27
ENDBRANCH  25  26
ENDBRANCH   5  25
TORSDOF 7
