REMARK SMILES Cc1ccccc1C(=O)Nc1nc(-c2ccccc2OC(F)F)cs1
REMARK SMILES IDX 14 1 15 2 16 3 17 4 18 5 19 6 13 7 11 8 12 9 25 10 24 11
REMARK SMILES IDX 10 12 8 13 9 14 7 16 2 17 3 18 4 19 6 20 5 21 1 22 20 23
REMARK SMILES IDX 21 24 22 25 23 26
REMARK H PARENT 10 15
ROOT
ATOM      1  C   UNL     1      -2.473   2.286  -2.228  1.00  0.00     0.043 A 
ATOM      2  C   UNL     1      -2.902   3.165  -3.241  1.00  0.00     0.014 A 
ATOM      3  C   UNL     1      -4.075   2.912  -3.954  1.00  0.00     0.001 A 
ATOM      4  C   UNL     1      -4.835   1.780  -3.670  1.00  0.00     0.004 A 
ATOM      5  C   UNL     1      -4.427   0.895  -2.672  1.00  0.00     0.047 A 
ATOM      6  C   UNL     1      -3.247   1.136  -1.938  1.00  0.00     0.135 A 
ENDROOT
BRANCH   1   7
ATOM      7  C   UNL     1      -1.212   2.565  -1.490  1.00  0.00     0.087 A 
ATOM      8  C   UNL     1       0.628   2.036  -0.307  1.00  0.00     0.190 A 
ATOM      9  N   UNL     1      -0.472   1.567  -0.933  1.00  0.00    -0.220 NA
ATOM     10  S   UNL     1       0.738   3.707  -0.415  1.00  0.00    -0.105 S 
ATOM     11  C   UNL     1      -0.684   3.847  -1.304  1.00  0.00     0.097 A 
BRANCH   8  12
ATOM     12  N   UNL     1       1.580   1.210   0.375  1.00  0.00    -0.298 N 
ATOM     13  C   UNL     1       1.446  -0.216   0.510  1.00  0.00     0.257 C 
ATOM     14  O   UNL     1       0.420  -0.800   0.068  1.00  0.00    -0.269 OA
ATOM     15  H   UNL     1       2.392   1.685   0.829  1.00  0.00     0.172 HD
BRANCH  13  16
ATOM     16  C   UNL     1       2.518  -1.010   1.158  1.00  0.00     0.043 A 
ATOM     17  C   UNL     1       2.233  -2.096   2.029  1.00  0.00    -0.038 A 
ATOM     18  C   UNL     1       3.296  -2.838   2.575  1.00  0.00     0.004 A 
ATOM     19  C   UNL     1       4.619  -2.501   2.290  1.00  0.00     0.000 A 
ATOM     20  C   UNL     1       3.860  -0.685   0.886  1.00  0.00     0.014 A 
ATOM     21  C   UNL     1       4.901  -1.425   1.450  1.00  0.00     0.001 A 
ATOM     22  C   UNL     1       0.821  -2.483   2.386  1.00  0.00     0.045 C 
ENDBRANCH  13  16
ENDBRANCH   8  12
ENDBRANCH   1   7
BRANCH   6  23
ATOM     23  O   UNL     1      -2.831   0.268  -0.914  1.00  0.00    -0.434 OA
BRANCH  23  24
ATOM     24  C   UNL     1      -3.484  -0.945  -0.548  1.00  0.00     0.542 C 
ATOM     25  F   UNL     1      -2.837  -1.492   0.543  1.00  0.00    -0.167 F 
ATOM     26  F   UNL     1      -3.433  -1.844  -1.597  1.00  0.00    -0.167 F 
ENDBRANCH  23  24
ENDBRANCH   6  23
TORSDOF 5
