REMARK SMILES O=C(C[C@H]1C[C@H]2CC[C@@H](C1)N2)Nc1ccc(OCc2cccnc2)c(Cl)c1
REMARK SMILES IDX 13 1 14 2 15 3 16 4 25 5 26 6 27 7 12 8 1 9 2 10 3 12 4 13
REMARK SMILES IDX 10 14 5 15 9 16 6 17 8 18 11 19 7 20 17 22 18 23 19 24 20 25
REMARK SMILES IDX 24 26 21 27 23 28 22 29
REMARK H PARENT 12 11 11 21
ROOT
ATOM      1  C   UNL     1       1.602  -1.497  -1.372  1.00  0.00     0.042 A 
ATOM      2  C   UNL     1       2.027  -0.187  -1.628  1.00  0.00     0.030 A 
ATOM      3  C   UNL     1       3.225   0.289  -1.089  1.00  0.00     0.050 A 
ATOM      4  C   UNL     1       4.029  -0.548  -0.292  1.00  0.00     0.138 A 
ATOM      5  C   UNL     1       3.617  -1.869  -0.058  1.00  0.00     0.085 A 
ATOM      6  Cl  UNL     1       4.604  -2.950   0.913  1.00  0.00    -0.080 Cl
ATOM      7  C   UNL     1       2.416  -2.341  -0.599  1.00  0.00     0.050 A 
ENDROOT
BRANCH   1   8
ATOM      8  N   UNL     1       0.375  -1.966  -1.956  1.00  0.00    -0.326 N 
ATOM      9  O   UNL     1      -0.356  -3.205  -0.104  1.00  0.00    -0.275 OA
ATOM     10  C   UNL     1      -0.521  -2.887  -1.313  1.00  0.00     0.224 C 
ATOM     11  H   UNL     1       0.070  -1.538  -2.859  1.00  0.00     0.169 HD
BRANCH  10  12
ATOM     12  C   UNL     1      -1.714  -3.420  -2.053  1.00  0.00     0.104 C 
BRANCH  12  13
ATOM     13  C   UNL     1      -3.002  -2.659  -1.682  1.00  0.00     0.001 C 
ATOM     14  C   UNL     1      -4.256  -3.381  -2.255  1.00  0.00     0.023 C 
ATOM     15  C   UNL     1      -2.936  -1.156  -2.089  1.00  0.00     0.023 C 
ATOM     16  C   UNL     1      -5.496  -2.446  -2.339  1.00  0.00     0.054 C 
ATOM     17  C   UNL     1      -4.344  -0.504  -2.192  1.00  0.00     0.054 C 
ATOM     18  C   UNL     1      -5.635  -1.826  -3.736  1.00  0.00     0.020 C 
ATOM     19  N   UNL     1      -5.293  -1.317  -1.433  1.00  0.00    -0.311 NA
ATOM     20  C   UNL     1      -4.861  -0.520  -3.637  1.00  0.00     0.020 C 
ATOM     21  H   UNL     1      -6.194  -0.789  -1.343  1.00  0.00     0.123 HD
ENDBRANCH  12  13
ENDBRANCH  10  12
ENDBRANCH   1   8
BRANCH   4  22
ATOM     22  O   UNL     1       5.238  -0.110   0.276  1.00  0.00    -0.487 OA
BRANCH  22  23
ATOM     23  C   UNL     1       5.736   1.228   0.233  1.00  0.00     0.267 C 
BRANCH  23  24
ATOM     24  C   UNL     1       4.896   2.139   1.088  1.00  0.00     0.008 A 
ATOM     25  C   UNL     1       4.618   1.805   2.421  1.00  0.00     0.010 A 
ATOM     26  C   UNL     1       4.403   3.352   0.581  1.00  0.00     0.118 A 
ATOM     27  C   UNL     1       3.848   2.661   3.210  1.00  0.00     0.020 A 
ATOM     28  N   UNL     1       3.656   4.170   1.370  1.00  0.00    -0.264 NA
ATOM     29  C   UNL     1       3.369   3.852   2.660  1.00  0.00     0.111 A 
ENDBRANCH  23  24
ENDBRANCH  22  23
ENDBRANCH   4  22
TORSDOF 6
