REMARK SMILES COC(=O)[C@@H]1Cc2ccccc2CN1C(=O)[C@H]1CC12CCOCC2
REMARK SMILES IDX 5 1 6 2 7 3 8 4 9 5 10 6 11 7 12 8 13 9 14 10 3 11 4 12 2 13
REMARK SMILES IDX 1 14 15 15 16 16 17 17 18 18 19 19 20 20 24 21 21 22 23 23
REMARK SMILES IDX 22 24
REMARK H PARENT
ROOT
ATOM      1  C   UNL     1      -0.190   1.009  -1.039  1.00  0.00     0.199 C 
ATOM      2  C   UNL     1       0.745   1.552  -2.132  1.00  0.00     0.073 C 
ATOM      3  C   UNL     1       1.955   2.238  -1.540  1.00  0.00    -0.040 A 
ATOM      4  C   UNL     1       2.719   3.092  -2.351  1.00  0.00     0.004 A 
ATOM      5  C   UNL     1       3.876   3.694  -1.853  1.00  0.00     0.000 A 
ATOM      6  C   UNL     1       4.289   3.443  -0.543  1.00  0.00     0.000 A 
ATOM      7  C   UNL     1       3.548   2.584   0.272  1.00  0.00     0.006 A 
ATOM      8  C   UNL     1       2.389   1.962  -0.219  1.00  0.00    -0.025 A 
ATOM      9  C   UNL     1       1.576   1.088   0.706  1.00  0.00     0.156 C 
ATOM     10  N   UNL     1       0.617   0.276  -0.051  1.00  0.00    -0.324 N 
ENDROOT
BRANCH   1  11
ATOM     11  C   UNL     1      -1.320   0.191  -1.610  1.00  0.00     0.328 C 
ATOM     12  O   UNL     1      -1.134  -0.540  -2.623  1.00  0.00    -0.250 OA
BRANCH  11  13
ATOM     13  O   UNL     1      -2.568   0.223  -0.982  1.00  0.00    -0.467 OA
ATOM     14  C   UNL     1      -3.694  -0.490  -1.482  1.00  0.00     0.282 C 
ENDBRANCH  11  13
ENDBRANCH   1  11
BRANCH  10  15
ATOM     15  C   UNL     1       0.849  -1.142  -0.151  1.00  0.00     0.227 C 
ATOM     16  O   UNL     1       1.985  -1.565  -0.496  1.00  0.00    -0.275 OA
BRANCH  15  17
ATOM     17  C   UNL     1      -0.252  -2.129   0.133  1.00  0.00     0.085 C 
ATOM     18  C   UNL     1       0.139  -3.218   1.134  1.00  0.00     0.022 C 
ATOM     19  C   UNL     1      -0.866  -2.139   1.536  1.00  0.00    -0.013 C 
ATOM     20  C   UNL     1      -0.377  -1.143   2.603  1.00  0.00     0.036 C 
ATOM     21  C   UNL     1      -2.336  -2.583   1.625  1.00  0.00     0.036 C 
ATOM     22  C   UNL     1      -0.917  -1.518   4.004  1.00  0.00     0.160 C 
ATOM     23  C   UNL     1      -2.867  -2.346   3.043  1.00  0.00     0.160 C 
ATOM     24  O   UNL     1      -1.847  -2.591   3.992  1.00  0.00    -0.381 OA
ENDBRANCH  15  17
ENDBRANCH  10  15
TORSDOF 4
