REMARK SMILES O=C(C[C@@H]1C[C@H]2CC[C@@H](C1)N2)Nc1ccc(OCc2cccnc2)c(Cl)c1
REMARK SMILES IDX 13 1 14 2 15 3 16 4 25 5 26 6 27 7 12 8 1 9 2 10 3 12 4 13
REMARK SMILES IDX 10 14 5 15 9 16 6 17 8 18 11 19 7 20 17 22 18 23 19 24 20 25
REMARK SMILES IDX 24 26 21 27 23 28 22 29
REMARK H PARENT 12 11 11 21
ROOT
ATOM      1  C   UNL     1       0.183   0.711  -0.737  1.00  0.00     0.042 A 
ATOM      2  C   UNL     1       1.517   0.986  -1.080  1.00  0.00     0.030 A 
ATOM      3  C   UNL     1       2.214   0.137  -1.944  1.00  0.00     0.050 A 
ATOM      4  C   UNL     1       1.584  -0.996  -2.492  1.00  0.00     0.138 A 
ATOM      5  C   UNL     1       0.245  -1.257  -2.166  1.00  0.00     0.085 A 
ATOM      6  Cl  UNL     1      -0.579  -2.655  -2.840  1.00  0.00    -0.080 Cl
ATOM      7  C   UNL     1      -0.451  -0.404  -1.302  1.00  0.00     0.050 A 
ENDROOT
BRANCH   1   8
ATOM      8  N   UNL     1      -0.563   1.581   0.130  1.00  0.00    -0.326 N 
ATOM      9  O   UNL     1       1.165   1.976   1.664  1.00  0.00    -0.275 OA
ATOM     10  C   UNL     1      -0.013   2.225   1.291  1.00  0.00     0.224 C 
ATOM     11  H   UNL     1      -1.593   1.664  -0.033  1.00  0.00     0.169 HD
BRANCH  10  12
ATOM     12  C   UNL     1      -0.855   3.179   2.093  1.00  0.00     0.104 C 
BRANCH  12  13
ATOM     13  C   UNL     1      -1.573   2.530   3.298  1.00  0.00     0.001 C 
ATOM     14  C   UNL     1      -2.554   1.393   2.885  1.00  0.00     0.023 C 
ATOM     15  C   UNL     1      -0.589   2.084   4.419  1.00  0.00     0.023 C 
ATOM     16  C   UNL     1      -3.011   0.568   4.112  1.00  0.00     0.054 C 
ATOM     17  C   UNL     1      -1.287   1.171   5.455  1.00  0.00     0.054 C 
ATOM     18  C   UNL     1      -3.668   1.449   5.183  1.00  0.00     0.020 C 
ATOM     19  N   UNL     1      -1.813   0.015   4.736  1.00  0.00    -0.311 NA
ATOM     20  C   UNL     1      -2.507   1.853   6.089  1.00  0.00     0.020 C 
ATOM     21  H   UNL     1      -2.102  -0.712   5.434  1.00  0.00     0.123 HD
ENDBRANCH  12  13
ENDBRANCH  10  12
ENDBRANCH   1   8
BRANCH   4  22
ATOM     22  O   UNL     1       2.251  -1.876  -3.359  1.00  0.00    -0.487 OA
BRANCH  22  23
ATOM     23  C   UNL     1       3.608  -1.735  -3.767  1.00  0.00     0.267 C 
BRANCH  23  24
ATOM     24  C   UNL     1       3.966  -2.870  -4.681  1.00  0.00     0.008 A 
ATOM     25  C   UNL     1       3.794  -2.753  -6.068  1.00  0.00     0.010 A 
ATOM     26  C   UNL     1       4.413  -4.093  -4.157  1.00  0.00     0.118 A 
ATOM     27  C   UNL     1       4.095  -3.832  -6.901  1.00  0.00     0.020 A 
ATOM     28  N   UNL     1       4.699  -5.129  -4.990  1.00  0.00    -0.264 NA
ATOM     29  C   UNL     1       4.555  -5.024  -6.338  1.00  0.00     0.111 A 
ENDBRANCH  23  24
ENDBRANCH  22  23
ENDBRANCH   4  22
TORSDOF 6
