REMARK SMILES N#Cc1ccsc1S(=O)(=O)Nc1cccc2c1NC(=O)C2
REMARK SMILES IDX 11 1 8 3 9 4 10 5 7 6 1 7 2 8 3 9 4 10 5 11 6 12 12 13 13 14
REMARK SMILES IDX 17 15 14 16 18 17 16 18 15 19 19 20 21 21 20 22
REMARK H PARENT 11 2 18 23
ROOT
ATOM      1  N   UNL     1       1.449  -0.971  -0.291  1.00  0.00    -0.277 N 
ATOM      2  H   UNL     1       1.911  -1.883  -0.084  1.00  0.00     0.180 HD
ENDROOT
BRANCH   1   3
ATOM      3  S   UNL     1       2.242   0.447   0.321  1.00  0.00     0.272 S 
ATOM      4  O   UNL     1       3.460   0.033   1.097  1.00  0.00    -0.200 OA
ATOM      5  O   UNL     1       2.663   1.313  -0.832  1.00  0.00    -0.200 OA
BRANCH   3   6
ATOM      6  C   UNL     1       1.160   1.325   1.394  1.00  0.00     0.158 A 
ATOM      7  N   UNL     1       3.059   4.296   0.857  1.00  0.00    -0.192 NA
ATOM      8  C   UNL     1       2.247   3.572   1.250  1.00  0.00     0.101 C 
ATOM      9  C   UNL     1       1.236   2.671   1.739  1.00  0.00     0.083 A 
ATOM     10  C   UNL     1       0.231   3.073   2.628  1.00  0.00     0.032 A 
ATOM     11  C   UNL     1      -0.634   2.047   2.987  1.00  0.00     0.068 A 
ATOM     12  S   UNL     1      -0.146   0.642   2.201  1.00  0.00    -0.129 S 
ENDBRANCH   3   6
ENDBRANCH   1   3
BRANCH   1  13
ATOM     13  C   UNL     1       0.199  -0.946  -1.006  1.00  0.00     0.073 A 
ATOM     14  C   UNL     1      -0.387   0.264  -1.447  1.00  0.00     0.029 A 
ATOM     15  C   UNL     1      -0.486  -2.139  -1.296  1.00  0.00     0.069 A 
ATOM     16  C   UNL     1      -1.611   0.259  -2.143  1.00  0.00     0.003 A 
ATOM     17  N   UNL     1      -0.099  -3.458  -0.944  1.00  0.00    -0.324 N 
ATOM     18  C   UNL     1      -1.688  -2.135  -1.981  1.00  0.00    -0.013 A 
ATOM     19  C   UNL     1      -2.270  -0.947  -2.414  1.00  0.00     0.006 A 
ATOM     20  C   UNL     1      -1.134  -4.292  -1.453  1.00  0.00     0.228 C 
ATOM     21  C   UNL     1      -2.215  -3.524  -2.148  1.00  0.00     0.138 C 
ATOM     22  O   UNL     1      -1.129  -5.543  -1.321  1.00  0.00    -0.274 OA
ATOM     23  H   UNL     1       0.740  -3.769  -0.408  1.00  0.00     0.170 HD
ENDBRANCH   1  13
TORSDOF 3
