REMARK SMILES O=C(Nc1ccc(OC(F)F)cc1)c1ccc(Nc2ncccn2)cc1
REMARK SMILES IDX 4 1 5 2 6 3 7 4 12 5 13 6 3 7 1 8 2 9 14 11 15 12 26 13
REMARK SMILES IDX 16 14 25 15 17 16 18 17 19 19 20 20 24 21 21 22 23 23 22 24
REMARK SMILES IDX 8 25 9 26 10 27 11 28
REMARK H PARENT 3 10 18 18
ROOT
ATOM      1  C   UNL     1       3.189  -0.708  -0.842  1.00  0.00     0.041 A 
ATOM      2  C   UNL     1       3.199  -1.544   0.289  1.00  0.00     0.030 A 
ATOM      3  C   UNL     1       4.404  -1.864   0.922  1.00  0.00     0.049 A 
ATOM      4  C   UNL     1       5.620  -1.342   0.442  1.00  0.00     0.126 A 
ATOM      5  C   UNL     1       5.605  -0.496  -0.672  1.00  0.00     0.049 A 
ATOM      6  C   UNL     1       4.401  -0.175  -1.305  1.00  0.00     0.030 A 
ENDROOT
BRANCH   1   7
ATOM      7  N   UNL     1       1.961  -0.346  -1.496  1.00  0.00    -0.322 N 
ATOM      8  O   UNL     1       0.947  -2.448  -1.419  1.00  0.00    -0.269 OA
ATOM      9  C   UNL     1       0.808  -1.202  -1.562  1.00  0.00     0.255 C 
ATOM     10  H   UNL     1       1.946   0.540  -2.050  1.00  0.00     0.170 HD
BRANCH   9  11
ATOM     11  C   UNL     1      -0.537  -0.646  -1.847  1.00  0.00     0.040 A 
ATOM     12  C   UNL     1      -0.815   0.717  -1.643  1.00  0.00     0.016 A 
ATOM     13  C   UNL     1      -1.565  -1.485  -2.314  1.00  0.00     0.016 A 
ATOM     14  C   UNL     1      -2.088   1.229  -1.908  1.00  0.00     0.027 A 
ATOM     15  C   UNL     1      -2.838  -0.971  -2.578  1.00  0.00     0.027 A 
ATOM     16  C   UNL     1      -3.114   0.389  -2.360  1.00  0.00     0.041 A 
BRANCH  16  17
ATOM     17  N   UNL     1      -4.408   0.946  -2.647  1.00  0.00    -0.324 N 
ATOM     18  H   UNL     1      -4.456   1.942  -2.960  1.00  0.00     0.170 HD
BRANCH  17  19
ATOM     19  C   UNL     1      -5.649   0.261  -2.426  1.00  0.00     0.227 A 
ATOM     20  N   UNL     1      -5.697  -0.873  -1.674  1.00  0.00    -0.221 NA
ATOM     21  N   UNL     1      -6.801   0.780  -2.933  1.00  0.00    -0.221 NA
ATOM     22  C   UNL     1      -6.874  -1.509  -1.438  1.00  0.00     0.117 A 
ATOM     23  C   UNL     1      -7.997   0.174  -2.719  1.00  0.00     0.117 A 
ATOM     24  C   UNL     1      -8.059  -0.995  -1.962  1.00  0.00     0.040 A 
ENDBRANCH  17  19
ENDBRANCH  16  17
ENDBRANCH   9  11
ENDBRANCH   1   7
BRANCH   4  25
ATOM     25  O   UNL     1       6.856  -1.635   1.039  1.00  0.00    -0.435 OA
BRANCH  25  26
ATOM     26  C   UNL     1       7.027  -2.454   2.192  1.00  0.00     0.542 C 
ATOM     27  F   UNL     1       6.429  -1.858   3.287  1.00  0.00    -0.167 F 
ATOM     28  F   UNL     1       8.378  -2.603   2.443  1.00  0.00    -0.167 F 
ENDBRANCH  25  26
ENDBRANCH   4  25
TORSDOF 6
