REMARK SMILES Cc1cc(NC(=O)NC2CCN([C@H](C)c3ccccc3)CC2)nn1-c1ccc(F)cc1F
REMARK SMILES IDX 5 1 6 2 7 3 8 4 4 7 2 8 3 9 24 10 23 11 1 12 25 13 26 14
REMARK SMILES IDX 31 15 27 16 30 17 28 18 32 19 29 20 9 21 10 22 22 23 11 24
REMARK SMILES IDX 21 25 12 26 13 27 14 28 15 29 16 30 20 31 17 32 19 33 18 34
REMARK H PARENT 5 5 8 6
ROOT
ATOM      1  N   UNL     1      -1.387  -0.013   1.151  1.00  0.00    -0.291 N 
ATOM      2  C   UNL     1      -0.888  -1.341   0.932  1.00  0.00     0.320 C 
ATOM      3  O   UNL     1      -0.296  -1.961   1.859  1.00  0.00    -0.248 OA
ATOM      4  N   UNL     1      -1.093  -1.974  -0.340  1.00  0.00    -0.335 N 
ATOM      5  H   UNL     1      -2.004   0.412   0.422  1.00  0.00     0.173 HD
ATOM      6  H   UNL     1      -1.622  -1.441  -1.067  1.00  0.00     0.165 HD
ENDROOT
BRANCH   1   7
ATOM      7  C   UNL     1      -1.096   0.757   2.324  1.00  0.00     0.156 A 
ATOM      8  C   UNL     1      -1.060   2.339   3.812  1.00  0.00     0.043 A 
ATOM      9  C   UNL     1      -1.684   1.966   2.639  1.00  0.00     0.072 A 
ATOM     10  N   UNL     1      -0.165   1.381   4.159  1.00  0.00    -0.233 N 
ATOM     11  N   UNL     1      -0.174   0.422   3.247  1.00  0.00    -0.150 NA
ATOM     12  C   UNL     1      -1.318   3.614   4.556  1.00  0.00     0.067 C 
BRANCH  10  13
ATOM     13  C   UNL     1       0.707   1.369   5.300  1.00  0.00     0.101 A 
ATOM     14  C   UNL     1       0.206   1.638   6.587  1.00  0.00     0.034 A 
ATOM     15  C   UNL     1       2.069   1.048   5.144  1.00  0.00     0.151 A 
ATOM     16  C   UNL     1       1.060   1.613   7.694  1.00  0.00     0.041 A 
ATOM     17  C   UNL     1       2.920   1.031   6.255  1.00  0.00     0.080 A 
ATOM     18  C   UNL     1       2.417   1.316   7.528  1.00  0.00     0.126 A 
ATOM     19  F   UNL     1       2.576   0.780   3.916  1.00  0.00    -0.205 F 
ATOM     20  F   UNL     1       3.243   1.298   8.603  1.00  0.00    -0.207 F 
ENDBRANCH  10  13
ENDBRANCH   1   7
BRANCH   4  21
ATOM     21  C   UNL     1      -0.717  -3.373  -0.589  1.00  0.00     0.086 C 
ATOM     22  C   UNL     1       0.810  -3.511  -0.756  1.00  0.00     0.040 C 
ATOM     23  C   UNL     1      -1.436  -3.915  -1.831  1.00  0.00     0.040 C 
ATOM     24  C   UNL     1       1.273  -3.373  -2.219  1.00  0.00     0.087 C 
ATOM     25  C   UNL     1      -0.970  -3.216  -3.129  1.00  0.00     0.087 C 
ATOM     26  N   UNL     1       0.339  -2.519  -2.987  1.00  0.00    -0.296 NA
BRANCH  26  27
ATOM     27  C   UNL     1       0.884  -2.143  -4.326  1.00  0.00     0.083 C 
ATOM     28  C   UNL     1       2.204  -1.351  -4.220  1.00  0.00     0.030 C 
BRANCH  27  29
ATOM     29  C   UNL     1      -0.109  -1.284  -5.095  1.00  0.00    -0.031 A 
ATOM     30  C   UNL     1      -0.513  -1.652  -6.390  1.00  0.00     0.005 A 
ATOM     31  C   UNL     1      -0.617  -0.099  -4.529  1.00  0.00     0.005 A 
ATOM     32  C   UNL     1      -1.412  -0.850  -7.102  1.00  0.00     0.000 A 
ATOM     33  C   UNL     1      -1.515   0.700  -5.244  1.00  0.00     0.000 A 
ATOM     34  C   UNL     1      -1.911   0.326  -6.530  1.00  0.00     0.000 A 
ENDBRANCH  27  29
ENDBRANCH  26  27
ENDBRANCH   4  21
TORSDOF 5
