REMARK SMILES COc1nc(C)cc(N2CCN(C(=O)C3CCCCC3)CC2)n1
REMARK SMILES IDX 3 1 4 2 5 3 6 4 7 5 8 6 23 7 2 8 1 9 9 10 10 11 22 12 11 13
REMARK SMILES IDX 21 14 12 15 13 16 14 17 15 18 16 19 20 20 17 21 19 22 18 23
REMARK H PARENT
ROOT
ATOM      1  C   UNL     1       0.842  -0.002   5.437  1.00  0.00     0.318 A 
ATOM      2  N   UNL     1      -0.079  -0.916   5.845  1.00  0.00    -0.200 NA
ATOM      3  C   UNL     1      -0.914  -1.517   4.958  1.00  0.00     0.047 A 
ATOM      4  C   UNL     1      -1.958  -2.469   5.447  1.00  0.00     0.067 C 
ATOM      5  C   UNL     1      -0.838  -1.185   3.600  1.00  0.00     0.070 A 
ATOM      6  C   UNL     1       0.120  -0.241   3.181  1.00  0.00     0.136 A 
ATOM      7  N   UNL     1       0.929   0.326   4.123  1.00  0.00    -0.178 NA
ENDROOT
BRANCH   1   8
ATOM      8  O   UNL     1       1.698   0.616   6.358  1.00  0.00    -0.467 OA
ATOM      9  C   UNL     1       1.667   0.331   7.753  1.00  0.00     0.282 C 
ENDBRANCH   1   8
BRANCH   6  10
ATOM     10  N   UNL     1       0.265   0.131   1.786  1.00  0.00    -0.353 N 
ATOM     11  C   UNL     1      -0.680  -0.371   0.773  1.00  0.00     0.139 C 
ATOM     12  C   UNL     1       1.337   1.053   1.367  1.00  0.00     0.139 C 
ATOM     13  C   UNL     1      -0.439   0.240  -0.615  1.00  0.00     0.141 C 
ATOM     14  C   UNL     1       1.994   0.546   0.081  1.00  0.00     0.141 C 
ATOM     15  N   UNL     1       0.994   0.229  -0.951  1.00  0.00    -0.339 N 
ATOM     16  C   UNL     1       1.454  -0.010  -2.300  1.00  0.00     0.225 C 
ATOM     17  O   UNL     1       2.616  -0.476  -2.480  1.00  0.00    -0.275 OA
BRANCH  16  18
ATOM     18  C   UNL     1       0.586   0.281  -3.510  1.00  0.00     0.078 C 
ATOM     19  C   UNL     1       1.293   1.262  -4.480  1.00  0.00     0.013 C 
ATOM     20  C   UNL     1       0.206  -1.030  -4.225  1.00  0.00     0.013 C 
ATOM     21  C   UNL     1       0.779   1.160  -5.936  1.00  0.00     0.001 C 
ATOM     22  C   UNL     1      -0.769  -0.785  -5.397  1.00  0.00     0.001 C 
ATOM     23  C   UNL     1      -0.657   0.626  -6.008  1.00  0.00     0.000 C 
ENDBRANCH  16  18
ENDBRANCH   6  10
TORSDOF 3
