REMARK SMILES CC(=O)OCC(=O)N1CCn2ncc([S@@](C)(=O)=NC(=O)[C@@H]3CC3(C)C)c2C1
REMARK SMILES IDX 8 1 9 2 10 3 11 4 12 5 13 6 14 7 26 8 27 9 6 10 7 11 5 12
REMARK SMILES IDX 4 13 2 14 3 15 1 16 15 17 17 18 18 19 16 20 19 21 20 22
REMARK SMILES IDX 21 23 22 24 23 25 24 26 25 27
REMARK H PARENT
ROOT
ATOM      1  N   UNL     1      -0.693   2.391   0.282  1.00  0.00    -0.332 N 
ATOM      2  C   UNL     1      -0.034   3.102  -0.832  1.00  0.00     0.143 C 
ATOM      3  C   UNL     1       1.468   3.248  -0.562  1.00  0.00     0.166 C 
ATOM      4  N   UNL     1       2.020   1.972  -0.127  1.00  0.00    -0.265 N 
ATOM      5  N   UNL     1       3.303   1.649  -0.166  1.00  0.00    -0.180 NA
ATOM      6  C   UNL     1       3.429   0.431   0.404  1.00  0.00     0.154 A 
ATOM      7  C   UNL     1       2.187  -0.008   0.824  1.00  0.00     0.091 A 
ATOM      8  C   UNL     1       1.317   1.005   0.482  1.00  0.00     0.075 A 
ATOM      9  C   UNL     1      -0.161   1.083   0.710  1.00  0.00     0.176 C 
ENDROOT
BRANCH   1  10
ATOM     10  C   UNL     1      -1.972   2.852   0.776  1.00  0.00     0.261 C 
ATOM     11  O   UNL     1      -2.356   4.028   0.525  1.00  0.00    -0.271 OA
BRANCH  10  12
ATOM     12  C   UNL     1      -2.842   1.976   1.636  1.00  0.00     0.332 C 
BRANCH  12  13
ATOM     13  O   UNL     1      -4.164   2.505   1.710  1.00  0.00    -0.456 OA
BRANCH  13  14
ATOM     14  C   UNL     1      -5.174   1.905   2.468  1.00  0.00     0.303 C 
ATOM     15  O   UNL     1      -4.958   0.832   3.094  1.00  0.00    -0.253 OA
ATOM     16  C   UNL     1      -6.534   2.514   2.496  1.00  0.00     0.139 C 
ENDBRANCH  13  14
ENDBRANCH  12  13
ENDBRANCH  10  12
ENDBRANCH   1  10
BRANCH   7  17
ATOM     17  S   UNL     1       1.830  -1.526   1.636  1.00  0.00     0.083 S 
ATOM     18  O   UNL     1       0.356  -1.814   1.593  1.00  0.00    -0.244 OA
ATOM     19  N   UNL     1       2.619  -2.710   0.960  1.00  0.00    -0.157 NA
ATOM     20  C   UNL     1       2.328  -1.387   3.337  1.00  0.00     0.140 C 
BRANCH  19  21
ATOM     21  C   UNL     1       2.581  -3.049  -0.434  1.00  0.00     0.257 C 
ATOM     22  O   UNL     1       3.367  -3.940  -0.852  1.00  0.00    -0.272 OA
BRANCH  21  23
ATOM     23  C   UNL     1       1.731  -2.295  -1.429  1.00  0.00     0.088 C 
ATOM     24  C   UNL     1       0.223  -2.534  -1.315  1.00  0.00     0.021 C 
ATOM     25  C   UNL     1       0.987  -3.102  -2.505  1.00  0.00    -0.023 C 
ATOM     26  C   UNL     1       1.062  -4.635  -2.538  1.00  0.00     0.012 C 
ATOM     27  C   UNL     1       0.741  -2.384  -3.834  1.00  0.00     0.012 C 
ENDBRANCH  21  23
ENDBRANCH  19  21
ENDBRANCH   7  17
TORSDOF 7
