REMARK SMILES Cn1ncc(C(=O)N2CCC(Oc3ccc(Cl)cc3)CC2)c1C(F)F
REMARK SMILES IDX 6 1 7 2 8 3 9 4 10 5 11 6 20 7 21 8 5 9 2 10 3 11 22 12 4 13
REMARK SMILES IDX 1 14 23 15 24 16 25 17 12 18 13 19 14 20 19 21 15 22 18 23
REMARK SMILES IDX 16 24 17 25
REMARK H PARENT
ROOT
ATOM      1  C   UNL     1       0.980  -2.718  -0.366  1.00  0.00     0.257 C 
ATOM      2  O   UNL     1       1.780  -3.679  -0.525  1.00  0.00    -0.269 OA
ATOM      3  N   UNL     1       1.491  -1.377  -0.289  1.00  0.00    -0.338 N 
ATOM      4  C   UNL     1       2.746  -1.127   0.431  1.00  0.00     0.123 C 
ATOM      5  C   UNL     1       2.709   0.221   1.181  1.00  0.00     0.067 C 
ATOM      6  C   UNL     1       1.762   1.268   0.553  1.00  0.00     0.176 C 
ATOM      7  C   UNL     1       1.597   1.015  -0.955  1.00  0.00     0.067 C 
ATOM      8  C   UNL     1       0.949  -0.354  -1.197  1.00  0.00     0.123 C 
ENDROOT
BRANCH   1   9
ATOM      9  C   UNL     1      -0.466  -2.986  -0.226  1.00  0.00     0.087 A 
ATOM     10  N   UNL     1      -2.467  -3.936  -0.236  1.00  0.00    -0.266 N 
ATOM     11  N   UNL     1      -2.594  -2.787   0.411  1.00  0.00    -0.180 NA
ATOM     12  C   UNL     1      -1.188  -4.095  -0.643  1.00  0.00     0.117 A 
ATOM     13  C   UNL     1      -1.387  -2.189   0.432  1.00  0.00     0.149 A 
ATOM     14  C   UNL     1      -3.577  -4.859  -0.448  1.00  0.00     0.174 C 
BRANCH  12  15
ATOM     15  C   UNL     1      -0.658  -5.289  -1.387  1.00  0.00     0.391 C 
ATOM     16  F   UNL     1       0.084  -4.875  -2.478  1.00  0.00    -0.203 F 
ATOM     17  F   UNL     1       0.138  -6.045  -0.546  1.00  0.00    -0.203 F 
ENDBRANCH  12  15
ENDBRANCH   1   9
BRANCH   6  18
ATOM     18  O   UNL     1       0.493   1.199   1.213  1.00  0.00    -0.490 OA
BRANCH  18  19
ATOM     19  C   UNL     1      -0.533   2.153   1.126  1.00  0.00     0.119 A 
ATOM     20  C   UNL     1      -1.769   1.845   1.710  1.00  0.00     0.048 A 
ATOM     21  C   UNL     1      -0.368   3.400   0.490  1.00  0.00     0.048 A 
ATOM     22  C   UNL     1      -2.829   2.754   1.652  1.00  0.00     0.024 A 
ATOM     23  C   UNL     1      -1.430   4.308   0.434  1.00  0.00     0.024 A 
ATOM     24  C   UNL     1      -2.662   3.986   1.013  1.00  0.00     0.041 A 
ATOM     25  Cl  UNL     1      -3.992   5.127   0.940  1.00  0.00    -0.084 Cl
ENDBRANCH  18  19
ENDBRANCH   6  18
TORSDOF 4
