REMARK SMILES C[C@@H](C(=O)NC1(Cc2ccccc2)CCC1)n1ccc(C(F)(F)F)n1
REMARK SMILES IDX 3 1 4 2 5 3 2 5 1 6 17 7 18 8 25 9 19 10 20 11 21 12 22 13
REMARK SMILES IDX 23 14 24 15 6 16 14 17 16 18 15 19 7 20 8 21 9 22 13 23
REMARK SMILES IDX 10 24 12 25 11 26
REMARK H PARENT 5 4
ROOT
ATOM      1  C   UNL     1      -0.873  -2.769   0.041  1.00  0.00     0.245 C 
ATOM      2  O   UNL     1      -0.213  -3.842   0.106  1.00  0.00    -0.273 OA
ATOM      3  N   UNL     1      -0.319  -1.540   0.541  1.00  0.00    -0.348 N 
ATOM      4  H   UNL     1      -1.009  -0.807   0.813  1.00  0.00     0.164 HD
ENDROOT
BRANCH   1   5
ATOM      5  C   UNL     1      -2.266  -2.757  -0.539  1.00  0.00     0.193 C 
ATOM      6  C   UNL     1      -2.647  -4.088  -1.195  1.00  0.00     0.044 C 
BRANCH   5   7
ATOM      7  N   UNL     1      -2.373  -1.675  -1.520  1.00  0.00    -0.260 N 
ATOM      8  C   UNL     1      -3.252  -0.654  -1.483  1.00  0.00     0.110 A 
ATOM      9  N   UNL     1      -1.587  -1.555  -2.579  1.00  0.00    -0.168 NA
ATOM     10  C   UNL     1      -3.022   0.159  -2.571  1.00  0.00     0.055 A 
ATOM     11  C   UNL     1      -1.957  -0.434  -3.228  1.00  0.00     0.166 A 
BRANCH  11  12
ATOM     12  C   UNL     1      -1.352   0.015  -4.519  1.00  0.00     0.435 C 
ATOM     13  F   UNL     1       0.014  -0.202  -4.493  1.00  0.00    -0.164 F 
ATOM     14  F   UNL     1      -1.907  -0.705  -5.559  1.00  0.00    -0.164 F 
ATOM     15  F   UNL     1      -1.589   1.363  -4.722  1.00  0.00    -0.164 F 
ENDBRANCH  11  12
ENDBRANCH   5   7
ENDBRANCH   1   5
BRANCH   3  16
ATOM     16  C   UNL     1       1.120  -1.213   0.621  1.00  0.00     0.044 C 
ATOM     17  C   UNL     1       1.965  -1.788  -0.528  1.00  0.00     0.029 C 
ATOM     18  C   UNL     1       1.863  -2.118   1.610  1.00  0.00     0.029 C 
ATOM     19  C   UNL     1       2.685  -2.696   0.463  1.00  0.00     0.005 C 
BRANCH  16  20
ATOM     20  C   UNL     1       1.370   0.296   0.888  1.00  0.00     0.063 C 
BRANCH  20  21
ATOM     21  C   UNL     1       0.695   1.195  -0.126  1.00  0.00    -0.046 A 
ATOM     22  C   UNL     1      -0.563   1.760   0.152  1.00  0.00     0.004 A 
ATOM     23  C   UNL     1       1.314   1.482  -1.356  1.00  0.00     0.004 A 
ATOM     24  C   UNL     1      -1.198   2.575  -0.790  1.00  0.00     0.000 A 
ATOM     25  C   UNL     1       0.675   2.298  -2.295  1.00  0.00     0.000 A 
ATOM     26  C   UNL     1      -0.580   2.841  -2.014  1.00  0.00     0.000 A 
ENDBRANCH  20  21
ENDBRANCH  16  20
ENDBRANCH   3  16
TORSDOF 6
