REMARK SMILES COc1cc(OC)cc(S(=O)(=O)Nc2cc(S(=O)(=O)NC(C)(C)C)ccc2OC)c1
REMARK SMILES IDX 14 1 15 2 16 3 25 4 26 5 27 6 13 7 10 9 11 10 12 11 9 12
REMARK SMILES IDX 3 13 4 14 30 15 5 16 8 17 2 18 1 19 6 20 7 21 28 22 29 23
REMARK SMILES IDX 17 24 18 25 19 26 20 27 21 29 22 30 23 31 24 32
REMARK H PARENT 13 8 20 28
ROOT
ATOM      1  C   UNL     1       1.344  -2.170   0.455  1.00  0.00     0.092 A 
ATOM      2  C   UNL     1       0.500  -1.285  -0.245  1.00  0.00     0.052 A 
ATOM      3  C   UNL     1      -0.462  -1.769  -1.140  1.00  0.00     0.084 A 
ATOM      4  C   UNL     1      -0.584  -3.144  -1.349  1.00  0.00     0.026 A 
ATOM      5  C   UNL     1       0.248  -4.034  -0.669  1.00  0.00     0.050 A 
ATOM      6  C   UNL     1       1.216  -3.559   0.238  1.00  0.00     0.143 A 
ENDROOT
BRANCH   1   7
ATOM      7  N   UNL     1       2.335  -1.681   1.383  1.00  0.00    -0.276 N 
ATOM      8  H   UNL     1       2.985  -2.353   1.847  1.00  0.00     0.180 HD
BRANCH   7   9
ATOM      9  S   UNL     1       2.498  -0.016   1.847  1.00  0.00     0.262 S 
ATOM     10  O   UNL     1       3.534   0.099   2.929  1.00  0.00    -0.201 OA
ATOM     11  O   UNL     1       2.946   0.783   0.655  1.00  0.00    -0.201 OA
BRANCH   9  12
ATOM     12  C   UNL     1       0.963   0.588   2.466  1.00  0.00     0.095 A 
ATOM     13  C   UNL     1      -0.737   2.324   2.559  1.00  0.00     0.123 A 
ATOM     14  C   UNL     1      -1.508   1.510   3.412  1.00  0.00     0.092 A 
ATOM     15  C   UNL     1       0.496   1.855   2.094  1.00  0.00     0.069 A 
ATOM     16  C   UNL     1      -1.041   0.237   3.797  1.00  0.00     0.123 A 
ATOM     17  C   UNL     1       0.194  -0.213   3.319  1.00  0.00     0.069 A 
BRANCH  13  18
ATOM     18  O   UNL     1      -1.157   3.599   2.152  1.00  0.00    -0.497 OA
ATOM     19  C   UNL     1      -2.390   4.201   2.533  1.00  0.00     0.278 C 
ENDBRANCH  13  18
BRANCH  16  20
ATOM     20  O   UNL     1      -1.772  -0.607   4.648  1.00  0.00    -0.497 OA
ATOM     21  C   UNL     1      -3.040  -0.284   5.209  1.00  0.00     0.278 C 
ENDBRANCH  16  20
ENDBRANCH   9  12
ENDBRANCH   7   9
ENDBRANCH   1   7
BRANCH   6  22
ATOM     22  O   UNL     1       2.061  -4.437   0.938  1.00  0.00    -0.495 OA
ATOM     23  C   UNL     1       2.037  -5.856   0.814  1.00  0.00     0.278 C 
ENDBRANCH   6  22
BRANCH   3  24
ATOM     24  S   UNL     1      -1.518  -0.658  -2.008  1.00  0.00     0.241 S 
ATOM     25  O   UNL     1      -2.931  -1.126  -1.800  1.00  0.00    -0.207 OA
ATOM     26  O   UNL     1      -1.409   0.727  -1.433  1.00  0.00    -0.207 OA
BRANCH  24  27
ATOM     27  N   UNL     1      -1.204  -0.625  -3.729  1.00  0.00    -0.206 NA
ATOM     28  H   UNL     1      -1.886   0.064  -4.126  1.00  0.00     0.141 HD
BRANCH  27  29
ATOM     29  C   UNL     1       0.169  -0.257  -4.164  1.00  0.00     0.025 C 
ATOM     30  C   UNL     1       1.153  -1.416  -3.900  1.00  0.00     0.028 C 
ATOM     31  C   UNL     1       0.129  -0.022  -5.691  1.00  0.00     0.028 C 
ATOM     32  C   UNL     1       0.680   1.038  -3.494  1.00  0.00     0.028 C 
ENDBRANCH  27  29
ENDBRANCH  24  27
ENDBRANCH   3  24
TORSDOF 9
