REMARK SMILES Cc1ccc(C)c(S(=O)(=O)Nc2ccc(-c3cnc(C)o3)cc2)c1
REMARK SMILES IDX 11 1 12 3 15 4 14 5 22 6 13 7 23 8 16 9 19 10 18 11 21 12
REMARK SMILES IDX 17 13 20 14 8 15 9 16 10 17 7 18 24 19 5 20 2 21 4 22 3 23
REMARK SMILES IDX 6 24 1 25
REMARK H PARENT 11 2
ROOT
ATOM      1  N   UNL     1       0.172  -1.470   0.127  1.00  0.00    -0.280 N 
ATOM      2  H   UNL     1       0.519  -2.232   0.754  1.00  0.00     0.180 HD
ENDROOT
BRANCH   1   3
ATOM      3  C   UNL     1       0.440  -0.101   0.475  1.00  0.00     0.049 A 
ATOM      4  C   UNL     1       0.995   2.569   1.209  1.00  0.00     0.019 A 
ATOM      5  C   UNL     1       1.227   1.517   2.112  1.00  0.00     0.014 A 
ATOM      6  C   UNL     1       0.490   2.270  -0.066  1.00  0.00     0.014 A 
ATOM      7  C   UNL     1       0.957   0.196   1.744  1.00  0.00     0.027 A 
ATOM      8  C   UNL     1       0.217   0.951  -0.431  1.00  0.00     0.027 A 
BRANCH   4   9
ATOM      9  C   UNL     1       1.282   3.977   1.568  1.00  0.00     0.154 A 
ATOM     10  C   UNL     1       1.468   6.070   1.415  1.00  0.00     0.191 A 
ATOM     11  N   UNL     1       1.888   5.806   2.670  1.00  0.00    -0.222 NA
ATOM     12  O   UNL     1       1.104   4.992   0.761  1.00  0.00    -0.441 OA
ATOM     13  C   UNL     1       1.772   4.469   2.763  1.00  0.00     0.162 A 
ATOM     14  C   UNL     1       1.387   7.446   0.848  1.00  0.00     0.111 C 
ENDBRANCH   4   9
ENDBRANCH   1   3
BRANCH   1  15
ATOM     15  S   UNL     1      -0.838  -1.943  -1.204  1.00  0.00     0.262 S 
ATOM     16  O   UNL     1      -0.059  -1.806  -2.482  1.00  0.00    -0.201 OA
ATOM     17  O   UNL     1      -2.052  -1.059  -1.277  1.00  0.00    -0.201 OA
BRANCH  15  18
ATOM     18  C   UNL     1      -1.358  -3.621  -0.978  1.00  0.00     0.090 A 
ATOM     19  C   UNL     1      -0.901  -4.599  -1.875  1.00  0.00     0.026 A 
ATOM     20  C   UNL     1      -2.221  -3.996   0.082  1.00  0.00    -0.031 A 
ATOM     21  C   UNL     1      -1.285  -5.939  -1.735  1.00  0.00    -0.050 A 
ATOM     22  C   UNL     1      -2.619  -5.337   0.198  1.00  0.00     0.005 A 
ATOM     23  C   UNL     1      -2.158  -6.299  -0.703  1.00  0.00     0.004 A 
ATOM     24  C   UNL     1      -2.743  -2.992   1.077  1.00  0.00     0.046 C 
ATOM     25  C   UNL     1      -0.835  -6.964  -2.733  1.00  0.00     0.044 C 
ENDBRANCH  15  18
ENDBRANCH   1  15
TORSDOF 4
