REMARK SMILES CC(C)c1nnc2ccc(NC(=O)N3CCCc4ccccc4CC3)cn12
REMARK SMILES IDX 14 1 12 2 11 3 13 4 10 6 4 7 5 8 27 9 6 10 26 11 7 12 8 13
REMARK SMILES IDX 9 14 2 15 1 16 3 17 15 18 16 19 25 21 24 22 23 23 22 24
REMARK SMILES IDX 18 25 21 26 19 27 20 28 17 29
REMARK H PARENT 11 5
REMARK Flexibility Score:   60.900
ROOT
ATOM      1  N   UNL     1       2.375   0.737   0.310  1.00  0.00    -0.324 N 
ENDROOT
BRANCH   1   2
ATOM      2  C   UNL     1       1.559   1.831  -0.161  1.00  0.00     0.321 C 
ATOM      3  N   UNL     1       0.862   2.675   0.765  1.00  0.00    -0.306 N 
ATOM      4  O   UNL     1       1.453   2.050  -1.399  1.00  0.00    -0.248 OA
ATOM      5  H   UNL     1       1.348   2.954   1.647  1.00  0.00     0.171 HD
BRANCH   3   6
ATOM      6  C   UNL     1      -0.471   3.158   0.532  1.00  0.00     0.059 A 
ATOM      7  C   UNL     1      -3.706   2.521  -1.147  1.00  0.00     0.140 A 
ATOM      8  N   UNL     1      -4.750   3.359  -0.948  1.00  0.00    -0.134 NA
ATOM      9  N   UNL     1      -2.628   2.943  -0.450  1.00  0.00    -0.284 N 
ATOM     10  N   UNL     1      -4.348   4.319  -0.121  1.00  0.00    -0.130 NA
ATOM     11  C   UNL     1      -1.366   2.459  -0.306  1.00  0.00     0.120 A 
ATOM     12  C   UNL     1      -3.064   4.050   0.169  1.00  0.00     0.160 A 
ATOM     13  C   UNL     1      -2.237   4.779   1.016  1.00  0.00     0.052 A 
ATOM     14  C   UNL     1      -0.926   4.315   1.202  1.00  0.00     0.031 A 
BRANCH   7  15
ATOM     15  C   UNL     1      -3.800   1.296  -2.026  1.00  0.00     0.052 C 
ATOM     16  C   UNL     1      -3.611   0.003  -1.226  1.00  0.00     0.016 C 
ATOM     17  C   UNL     1      -2.847   1.377  -3.223  1.00  0.00     0.016 C 
ENDBRANCH   7  15
ENDBRANCH   3   6
ENDBRANCH   1   2
BRANCH   1  18
ATOM     18  C   UNL     1       2.197   0.199   1.667  1.00  0.00     0.121 C 
BRANCH  18  19
ATOM     19  C   UNL     1       0.794  -0.406   1.860  1.00  0.00     0.026 CG0
ATOM     20  G   UNL     1       0.349  -1.323   0.708  1.00  0.00     0.000 G0
ENDBRANCH  18  19
ENDBRANCH   1  18
BRANCH   1  21
ATOM     21  C   UNL     1       3.298   0.061  -0.614  1.00  0.00     0.126 C 
BRANCH  21  22
ATOM     22  C   UNL     1       2.595  -1.075  -1.368  1.00  0.00     0.057 C 
BRANCH  22  23
ATOM     23  C   UNL     1       2.404  -2.305  -0.500  1.00  0.00    -0.043 A 
ATOM     24  C   UNL     1       3.341  -3.349  -0.616  1.00  0.00     0.004 A 
ATOM     25  C   UNL     1       1.347  -2.429   0.446  1.00  0.00    -0.045 A 
ATOM     26  C   UNL     1       3.233  -4.498   0.168  1.00  0.00     0.000 A 
ATOM     27  C   UNL     1       1.264  -3.591   1.233  1.00  0.00     0.004 A 
ATOM     28  C   UNL     1       2.195  -4.620   1.089  1.00  0.00     0.000 A 
BRANCH  25  29
ATOM     29  C   UNL     1       0.349  -1.323   0.708  1.00  0.00     0.037 CG0
ATOM     30  G   UNL     1       0.794  -0.406   1.860  1.00  0.00     0.000 G0
ENDBRANCH  25  29
ENDBRANCH  22  23
ENDBRANCH  21  22
ENDBRANCH   1  21
TORSDOF 3
