REMARK SMILES C[C@H](NC(=O)c1ccc(Oc2ccc(Cl)cc2)cc1)[C@H]1CCNC1
REMARK SMILES IDX 6 1 7 2 8 3 9 4 18 5 19 6 4 7 3 8 5 9 2 11 1 12 20 13 21 14
REMARK SMILES IDX 24 15 22 16 23 17 10 19 11 20 12 21 17 22 13 23 16 24 14 25
REMARK SMILES IDX 15 26
REMARK H PARENT 3 10 23 18
ROOT
ATOM      1  C   UNL     1       0.680  -1.823  -1.202  1.00  0.00     0.040 A 
ATOM      2  C   UNL     1       1.930  -2.455  -1.072  1.00  0.00     0.017 A 
ATOM      3  C   UNL     1       2.925  -1.898  -0.263  1.00  0.00     0.048 A 
ATOM      4  C   UNL     1       2.692  -0.707   0.431  1.00  0.00     0.127 A 
ATOM      5  C   UNL     1       1.457  -0.054   0.278  1.00  0.00     0.048 A 
ATOM      6  C   UNL     1       0.459  -0.609  -0.529  1.00  0.00     0.017 A 
ENDROOT
BRANCH   1   7
ATOM      7  C   UNL     1      -0.366  -2.418  -2.067  1.00  0.00     0.251 C 
ATOM      8  N   UNL     1      -1.757  -2.117  -1.860  1.00  0.00    -0.349 N 
ATOM      9  O   UNL     1      -0.031  -3.210  -2.990  1.00  0.00    -0.269 OA
ATOM     10  H   UNL     1      -2.048  -1.692  -0.950  1.00  0.00     0.164 HD
BRANCH   8  11
ATOM     11  C   UNL     1      -2.787  -2.449  -2.851  1.00  0.00     0.083 C 
ATOM     12  C   UNL     1      -4.176  -2.433  -2.188  1.00  0.00     0.031 C 
BRANCH  11  13
ATOM     13  C   UNL     1      -2.665  -1.502  -4.083  1.00  0.00     0.026 C 
ATOM     14  C   UNL     1      -3.628  -1.843  -5.208  1.00  0.00     0.022 C 
ATOM     15  C   UNL     1      -2.955  -0.035  -3.771  1.00  0.00     0.086 C 
ATOM     16  C   UNL     1      -4.734  -0.799  -5.130  1.00  0.00     0.081 C 
ATOM     17  N   UNL     1      -4.304   0.282  -4.238  1.00  0.00    -0.316 NA
ATOM     18  H   UNL     1      -4.946   0.308  -3.411  1.00  0.00     0.122 HD
ENDBRANCH  11  13
ENDBRANCH   8  11
ENDBRANCH   1   7
BRANCH   4  19
ATOM     19  O   UNL     1       3.721  -0.174   1.220  1.00  0.00    -0.457 OA
BRANCH  19  20
ATOM     20  C   UNL     1       3.541   0.602   2.375  1.00  0.00     0.127 A 
ATOM     21  C   UNL     1       2.441   0.417   3.233  1.00  0.00     0.048 A 
ATOM     22  C   UNL     1       4.514   1.554   2.704  1.00  0.00     0.048 A 
ATOM     23  C   UNL     1       2.306   1.200   4.384  1.00  0.00     0.024 A 
ATOM     24  C   UNL     1       4.376   2.338   3.854  1.00  0.00     0.024 A 
ATOM     25  C   UNL     1       3.271   2.164   4.693  1.00  0.00     0.041 A 
ATOM     26  Cl  UNL     1       3.099   3.147   6.135  1.00  0.00    -0.084 Cl
ENDBRANCH  19  20
ENDBRANCH   4  19
TORSDOF 5
