REMARK SMILES O=C(c1ccc2scnc2c1)N1CCC2(CCC(O)CC2)CC1
REMARK SMILES IDX 1 1 2 2 12 3 13 4 14 5 15 6 16 7 17 8 18 9 20 10 21 11 22 12
REMARK SMILES IDX 23 13 3 14 4 15 11 16 5 17 10 18 6 19 9 20 7 21 8 22 19 23
REMARK H PARENT 19 24
ROOT
ATOM      1  O   UNL     1      -1.505  -2.083  -2.277  1.00  0.00    -0.269 OA
ATOM      2  C   UNL     1      -1.640  -1.225  -1.362  1.00  0.00     0.253 C 
ATOM      3  N   UNL     1      -0.492  -0.833  -0.586  1.00  0.00    -0.339 N 
ATOM      4  C   UNL     1       0.845  -0.911  -1.189  1.00  0.00     0.120 C 
ATOM      5  C   UNL     1       1.819   0.001  -0.436  1.00  0.00     0.028 C 
ATOM      6  C   UNL     1       1.941  -0.355   1.089  1.00  0.00    -0.026 C 
ATOM      7  C   UNL     1       2.155   0.955   1.901  1.00  0.00     0.010 C 
ATOM      8  C   UNL     1       3.470   1.675   1.542  1.00  0.00     0.032 C 
ATOM      9  C   UNL     1       4.681   0.725   1.382  1.00  0.00     0.114 C 
ATOM     10  C   UNL     1       4.399  -0.674   1.950  1.00  0.00     0.032 C 
ATOM     11  C   UNL     1       3.152  -1.331   1.326  1.00  0.00     0.010 C 
ATOM     12  C   UNL     1       0.628  -1.044   1.597  1.00  0.00     0.028 C 
ATOM     13  C   UNL     1      -0.622  -0.559   0.854  1.00  0.00     0.120 C 
ENDROOT
BRANCH   2  14
ATOM     14  C   UNL     1      -2.979  -0.647  -1.112  1.00  0.00     0.042 A 
ATOM     15  C   UNL     1      -4.137  -1.443  -1.293  1.00  0.00     0.015 A 
ATOM     16  C   UNL     1      -3.116   0.706  -0.729  1.00  0.00     0.043 A 
ATOM     17  C   UNL     1      -5.415  -0.909  -1.069  1.00  0.00     0.022 A 
ATOM     18  C   UNL     1      -4.393   1.222  -0.510  1.00  0.00     0.082 A 
ATOM     19  C   UNL     1      -5.510   0.422  -0.676  1.00  0.00     0.054 A 
ATOM     20  N   UNL     1      -4.650   2.502  -0.137  1.00  0.00    -0.245 NA
ATOM     21  S   UNL     1      -6.883   1.326  -0.347  1.00  0.00    -0.122 S 
ATOM     22  C   UNL     1      -5.981   2.717  -0.003  1.00  0.00     0.176 A 
ENDBRANCH   2  14
BRANCH   9  23
ATOM     23  O   UNL     1       5.040   0.633   0.026  1.00  0.00    -0.393 OA
ATOM     24  H   UNL     1       5.960   0.262  -0.005  1.00  0.00     0.210 HD
ENDBRANCH   9  23
TORSDOF 2
