REMARK SMILES CN1CC[C@@H]2[C@H]1CCCN2C(=O)[C@H]1CCN(c2ccc(-c3nn[nH]n3)cc2F)C1
REMARK SMILES IDX 13 1 14 2 15 3 16 4 29 5 11 6 12 7 10 8 2 9 3 10 6 11 4 12
REMARK SMILES IDX 5 13 7 14 8 15 9 16 1 17 17 18 18 19 27 20 19 21 26 22 20 23
REMARK SMILES IDX 28 24 21 25 22 26 25 27 23 28 24 29
REMARK H PARENT 24 30
ROOT
ATOM      1  C   UNL     1       1.799  -0.509  -2.543  1.00  0.00     0.100 C 
ATOM      2  C   UNL     1       3.283  -0.216  -2.291  1.00  0.00     0.037 C 
ATOM      3  C   UNL     1       3.645  -1.050  -1.068  1.00  0.00     0.117 C 
ATOM      4  N   UNL     1       2.389  -1.294  -0.373  1.00  0.00    -0.368 N 
ATOM      5  C   UNL     1       1.245  -0.859  -1.163  1.00  0.00     0.130 C 
ENDROOT
BRANCH   1   6
ATOM      6  C   UNL     1       1.022   0.624  -3.188  1.00  0.00     0.227 C 
ATOM      7  O   UNL     1       1.578   1.740  -3.382  1.00  0.00    -0.274 OA
BRANCH   6   8
ATOM      8  N   UNL     1      -0.378   0.469  -3.510  1.00  0.00    -0.338 N 
ATOM      9  N   UNL     1      -3.542   2.265  -2.652  1.00  0.00    -0.301 NA
ATOM     10  C   UNL     1      -2.637   2.656  -1.557  1.00  0.00     0.086 C 
ATOM     11  C   UNL     1      -2.758   1.441  -3.613  1.00  0.00     0.079 C 
ATOM     12  C   UNL     1      -1.357   1.862  -1.722  1.00  0.00     0.042 C 
ATOM     13  C   UNL     1      -1.280   1.605  -3.210  1.00  0.00     0.103 C 
ATOM     14  C   UNL     1      -3.174  -0.044  -3.693  1.00  0.00     0.023 C 
ATOM     15  C   UNL     1      -2.231  -0.779  -4.629  1.00  0.00     0.023 C 
ATOM     16  C   UNL     1      -0.840  -0.836  -4.016  1.00  0.00     0.120 C 
ATOM     17  C   UNL     1      -4.794   1.686  -2.138  1.00  0.00     0.105 C 
ENDBRANCH   6   8
ENDBRANCH   1   6
BRANCH   4  18
ATOM     18  C   UNL     1       2.273  -1.838   0.967  1.00  0.00     0.073 A 
ATOM     19  C   UNL     1       1.060  -1.713   1.676  1.00  0.00     0.030 A 
ATOM     20  C   UNL     1       3.343  -2.526   1.585  1.00  0.00     0.147 A 
ATOM     21  C   UNL     1       0.928  -2.226   2.969  1.00  0.00     0.014 A 
ATOM     22  C   UNL     1       3.201  -3.042   2.880  1.00  0.00     0.053 A 
ATOM     23  C   UNL     1       1.995  -2.895   3.583  1.00  0.00     0.026 A 
ATOM     24  F   UNL     1       4.513  -2.746   0.939  1.00  0.00    -0.205 F 
BRANCH  23  25
ATOM     25  C   UNL     1       1.849  -3.440   4.949  1.00  0.00     0.204 A 
ATOM     26  N   UNL     1       2.854  -3.988   5.664  1.00  0.00    -0.108 NA
ATOM     27  N   UNL     1       0.695  -3.453   5.646  1.00  0.00    -0.134 NA
ATOM     28  N   UNL     1       2.304  -4.333   6.815  1.00  0.00    -0.050 NA
ATOM     29  N   UNL     1       1.021  -4.015   6.795  1.00  0.00    -0.177 N 
ATOM     30  H   UNL     1       0.360  -4.171   7.586  1.00  0.00     0.216 HD
ENDBRANCH  23  25
ENDBRANCH   4  18
TORSDOF 4
