REMARK SMILES CC(=O)OCC(=O)N1CCn2ncc([S@](C)(=O)=NC(=O)[C@H]3CC3(C)C)c2C1
REMARK SMILES IDX 8 1 9 2 10 3 11 4 12 5 13 6 14 7 26 8 27 9 6 10 7 11 5 12
REMARK SMILES IDX 4 13 2 14 3 15 1 16 15 17 17 18 18 19 16 20 19 21 20 22
REMARK SMILES IDX 21 23 22 24 23 25 24 26 25 27
REMARK H PARENT
ROOT
ATOM      1  N   UNL     1      -0.018  -0.717   3.542  1.00  0.00    -0.332 N 
ATOM      2  C   UNL     1       0.944  -1.808   3.816  1.00  0.00     0.143 C 
ATOM      3  C   UNL     1       2.303  -1.537   3.160  1.00  0.00     0.166 C 
ATOM      4  N   UNL     1       2.103  -1.162   1.770  1.00  0.00    -0.265 N 
ATOM      5  N   UNL     1       2.982  -1.334   0.795  1.00  0.00    -0.180 NA
ATOM      6  C   UNL     1       2.451  -0.792  -0.322  1.00  0.00     0.154 A 
ATOM      7  C   UNL     1       1.210  -0.255  -0.025  1.00  0.00     0.091 A 
ATOM      8  C   UNL     1       1.027  -0.507   1.317  1.00  0.00     0.075 A 
ATOM      9  C   UNL     1      -0.114  -0.104   2.200  1.00  0.00     0.176 C 
ENDROOT
BRANCH   1  10
ATOM     10  C   UNL     1      -1.046  -0.380   4.503  1.00  0.00     0.261 C 
ATOM     11  O   UNL     1      -1.740   0.660   4.333  1.00  0.00    -0.271 OA
BRANCH  10  12
ATOM     12  C   UNL     1      -1.332  -1.235   5.708  1.00  0.00     0.332 C 
BRANCH  12  13
ATOM     13  O   UNL     1      -1.536  -2.595   5.329  1.00  0.00    -0.456 OA
BRANCH  13  14
ATOM     14  C   UNL     1      -2.641  -3.028   4.588  1.00  0.00     0.303 C 
ATOM     15  O   UNL     1      -3.566  -2.228   4.280  1.00  0.00    -0.253 OA
ATOM     16  C   UNL     1      -2.745  -4.462   4.197  1.00  0.00     0.139 C 
ENDBRANCH  13  14
ENDBRANCH  12  13
ENDBRANCH  10  12
ENDBRANCH   1  10
BRANCH   7  17
ATOM     17  S   UNL     1       0.122   0.570  -1.129  1.00  0.00     0.083 S 
ATOM     18  O   UNL     1      -1.235  -0.074  -1.058  1.00  0.00    -0.244 OA
ATOM     19  N   UNL     1       0.684   0.437  -2.593  1.00  0.00    -0.157 NA
ATOM     20  C   UNL     1       0.011   2.290  -0.679  1.00  0.00     0.140 C 
BRANCH  19  21
ATOM     21  C   UNL     1      -0.019   0.894  -3.754  1.00  0.00     0.257 C 
ATOM     22  O   UNL     1      -1.148   1.444  -3.650  1.00  0.00    -0.272 OA
BRANCH  21  23
ATOM     23  C   UNL     1       0.611   0.758  -5.108  1.00  0.00     0.088 C 
ATOM     24  C   UNL     1       1.251  -0.606  -5.388  1.00  0.00     0.021 C 
ATOM     25  C   UNL     1      -0.046  -0.217  -6.090  1.00  0.00    -0.023 C 
ATOM     26  C   UNL     1      -1.290  -1.010  -5.658  1.00  0.00     0.012 C 
ATOM     27  C   UNL     1       0.088   0.131  -7.575  1.00  0.00     0.012 C 
ENDBRANCH  21  23
ENDBRANCH  19  21
ENDBRANCH   7  17
TORSDOF 7
