REMARK SMILES CC(C)c1nnc2ccc(NC(=O)N3CCCc4ccccc4CC3)cn12
REMARK SMILES IDX 14 1 12 2 11 3 13 4 10 6 4 7 5 8 27 9 6 10 26 11 7 12 8 13
REMARK SMILES IDX 9 14 2 15 1 16 3 17 15 18 16 19 25 21 24 22 23 23 22 24
REMARK SMILES IDX 18 25 21 26 19 27 20 28 17 29
REMARK H PARENT 11 5
REMARK Flexibility Score:   60.900
ROOT
ATOM      1  N   UNL     1       0.515   1.349  -2.474  1.00  0.00    -0.324 N 
ENDROOT
BRANCH   1   2
ATOM      2  C   UNL     1       0.481   1.477  -1.032  1.00  0.00     0.321 C 
ATOM      3  N   UNL     1       1.178   0.544  -0.184  1.00  0.00    -0.306 N 
ATOM      4  O   UNL     1      -0.214   2.392  -0.509  1.00  0.00    -0.248 OA
ATOM      5  H   UNL     1       1.638  -0.285  -0.615  1.00  0.00     0.171 HD
BRANCH   3   6
ATOM      6  C   UNL     1       1.033   0.519   1.244  1.00  0.00     0.059 A 
ATOM      7  C   UNL     1       0.510  -1.695   4.139  1.00  0.00     0.140 A 
ATOM      8  N   UNL     1       0.387  -1.181   5.387  1.00  0.00    -0.134 NA
ATOM      9  N   UNL     1       0.723  -0.710   3.248  1.00  0.00    -0.284 N 
ATOM     10  N   UNL     1       0.543   0.137   5.296  1.00  0.00    -0.130 NA
ATOM     11  C   UNL     1       0.865  -0.715   1.899  1.00  0.00     0.120 A 
ATOM     12  C   UNL     1       0.743   0.401   3.993  1.00  0.00     0.160 A 
ATOM     13  C   UNL     1       0.932   1.652   3.414  1.00  0.00     0.052 A 
ATOM     14  C   UNL     1       1.086   1.704   2.018  1.00  0.00     0.031 A 
BRANCH   7  15
ATOM     15  C   UNL     1       0.311  -3.150   3.790  1.00  0.00     0.052 C 
ATOM     16  C   UNL     1      -1.137  -3.390   3.355  1.00  0.00     0.016 C 
ATOM     17  C   UNL     1       0.686  -4.062   4.963  1.00  0.00     0.016 C 
ENDBRANCH   7  15
ENDBRANCH   3   6
ENDBRANCH   1   2
BRANCH   1  18
ATOM     18  C   UNL     1      -0.504   2.060  -3.269  1.00  0.00     0.121 C 
BRANCH  18  19
ATOM     19  C   UNL     1      -0.897   1.327  -4.562  1.00  0.00     0.026 CG0
ATOM     20  G   UNL     1      -1.687   0.012  -4.367  1.00  0.00     0.000 G0
ENDBRANCH  18  19
ENDBRANCH   1  18
BRANCH   1  21
ATOM     21  C   UNL     1       1.610   0.617  -3.143  1.00  0.00     0.126 C 
BRANCH  21  22
ATOM     22  C   UNL     1       1.179  -0.790  -3.626  1.00  0.00     0.057 C 
BRANCH  22  23
ATOM     23  C   UNL     1      -0.027  -1.319  -2.885  1.00  0.00    -0.043 A 
ATOM     24  C   UNL     1       0.180  -2.214  -1.819  1.00  0.00     0.004 A 
ATOM     25  C   UNL     1      -1.342  -0.847  -3.156  1.00  0.00    -0.045 A 
ATOM     26  C   UNL     1      -0.883  -2.625  -1.016  1.00  0.00     0.000 A 
ATOM     27  C   UNL     1      -2.399  -1.282  -2.332  1.00  0.00     0.004 A 
ATOM     28  C   UNL     1      -2.168  -2.153  -1.267  1.00  0.00     0.000 A 
BRANCH  25  29
ATOM     29  C   UNL     1      -1.687   0.012  -4.367  1.00  0.00     0.037 CG0
ATOM     30  G   UNL     1      -0.897   1.327  -4.562  1.00  0.00     0.000 G0
ENDBRANCH  25  29
ENDBRANCH  22  23
ENDBRANCH  21  22
ENDBRANCH   1  21
TORSDOF 3
