REMARK SMILES O=C(N[C@@H]1C[C@H]2CNC[C@H]2C1)c1ccc(OCC2CCCCC2)cc1
REMARK SMILES IDX 12 1 13 2 14 3 15 4 24 5 25 6 2 7 1 8 3 9 4 11 11 12 5 13
REMARK SMILES IDX 10 14 6 15 9 16 7 17 8 18 16 20 17 21 18 22 19 23 23 24
REMARK SMILES IDX 20 25 22 26 21 27
REMARK H PARENT 3 10 8 19
ROOT
ATOM      1  C   UNL     1      -1.021   0.881  -1.715  1.00  0.00     0.040 A 
ATOM      2  C   UNL     1       0.000   0.236  -0.995  1.00  0.00     0.017 A 
ATOM      3  C   UNL     1       1.342   0.560  -1.220  1.00  0.00     0.047 A 
ATOM      4  C   UNL     1       1.688   1.537  -2.172  1.00  0.00     0.119 A 
ATOM      5  C   UNL     1       0.672   2.166  -2.900  1.00  0.00     0.047 A 
ATOM      6  C   UNL     1      -0.669   1.842  -2.678  1.00  0.00     0.017 A 
ENDROOT
BRANCH   1   7
ATOM      7  C   UNL     1      -2.446   0.540  -1.492  1.00  0.00     0.251 C 
ATOM      8  O   UNL     1      -3.283   0.749  -2.413  1.00  0.00    -0.269 OA
ATOM      9  N   UNL     1      -2.891  -0.012  -0.242  1.00  0.00    -0.349 N 
ATOM     10  H   UNL     1      -2.253   0.036   0.584  1.00  0.00     0.164 HD
BRANCH   9  11
ATOM     11  C   UNL     1      -4.244  -0.559  -0.075  1.00  0.00     0.083 C 
ATOM     12  C   UNL     1      -4.360  -1.919  -0.768  1.00  0.00     0.030 C 
ATOM     13  C   UNL     1      -4.542  -0.847   1.393  1.00  0.00     0.030 C 
ATOM     14  C   UNL     1      -4.111  -2.978   0.318  1.00  0.00     0.009 C 
ATOM     15  C   UNL     1      -3.991  -2.251   1.640  1.00  0.00     0.009 C 
ATOM     16  C   UNL     1      -5.264  -3.954   0.528  1.00  0.00     0.085 C 
ATOM     17  C   UNL     1      -4.797  -3.079   2.647  1.00  0.00     0.085 C 
ATOM     18  N   UNL     1      -5.294  -4.268   1.953  1.00  0.00    -0.316 NA
ATOM     19  H   UNL     1      -6.283  -4.453   2.244  1.00  0.00     0.122 HD
ENDBRANCH   9  11
ENDBRANCH   1   7
BRANCH   4  20
ATOM     20  O   UNL     1       3.017   1.905  -2.437  1.00  0.00    -0.493 OA
BRANCH  20  21
ATOM     21  C   UNL     1       4.162   1.478  -1.696  1.00  0.00     0.233 C 
BRANCH  21  22
ATOM     22  C   UNL     1       4.233   2.184  -0.329  1.00  0.00     0.027 C 
ATOM     23  C   UNL     1       5.459   1.702   0.468  1.00  0.00     0.007 C 
ATOM     24  C   UNL     1       4.251   3.727  -0.494  1.00  0.00     0.007 C 
ATOM     25  C   UNL     1       5.485   2.299   1.890  1.00  0.00     0.000 C 
ATOM     26  C   UNL     1       4.918   4.465   0.686  1.00  0.00     0.000 C 
ATOM     27  C   UNL     1       4.799   3.676   1.993  1.00  0.00     0.000 C 
ENDBRANCH  21  22
ENDBRANCH  20  21
ENDBRANCH   4  20
TORSDOF 5
