REMARK SMILES Cc1ccc(CC(C)(C)NC(=O)c2cc(-c3ccn(C)n3)on2)cc1
REMARK SMILES IDX 10 1 11 2 12 3 7 5 8 6 9 7 6 8 5 9 2 10 3 11 25 12 4 13
REMARK SMILES IDX 24 14 1 15 13 16 14 17 23 18 15 19 22 20 16 21 17 22 21 23
REMARK SMILES IDX 18 24 19 25 20 26
REMARK H PARENT 10 4
ROOT
ATOM      1  N   UNL     1      -1.242   0.798  -2.348  1.00  0.00    -0.345 N 
ATOM      2  C   UNL     1      -0.767  -0.115  -3.357  1.00  0.00     0.273 C 
ATOM      3  O   UNL     1      -1.493  -0.414  -4.342  1.00  0.00    -0.267 OA
ATOM      4  H   UNL     1      -0.538   1.165  -1.669  1.00  0.00     0.164 HD
ENDROOT
BRANCH   1   5
ATOM      5  C   UNL     1      -2.647   1.224  -2.186  1.00  0.00     0.039 C 
ATOM      6  C   UNL     1      -2.741   2.205  -0.994  1.00  0.00     0.035 C 
ATOM      7  C   UNL     1      -3.120   1.980  -3.446  1.00  0.00     0.035 C 
BRANCH   5   8
ATOM      8  C   UNL     1      -3.572  -0.004  -1.938  1.00  0.00     0.063 C 
BRANCH   8   9
ATOM      9  C   UNL     1      -3.169  -0.835  -0.739  1.00  0.00    -0.046 A 
ATOM     10  C   UNL     1      -2.396  -2.356   1.502  1.00  0.00    -0.051 A 
ATOM     11  C   UNL     1      -1.862  -2.639   0.237  1.00  0.00     0.004 A 
ATOM     12  C   UNL     1      -3.308  -1.300   1.645  1.00  0.00     0.004 A 
ATOM     13  C   UNL     1      -2.254  -1.891  -0.877  1.00  0.00     0.004 A 
ATOM     14  C   UNL     1      -3.699  -0.551   0.531  1.00  0.00     0.004 A 
ATOM     15  C   UNL     1      -1.943  -3.131   2.704  1.00  0.00     0.044 C 
ENDBRANCH   8   9
ENDBRANCH   5   8
ENDBRANCH   1   5
BRANCH   2  16
ATOM     16  C   UNL     1       0.567  -0.729  -3.251  1.00  0.00     0.171 A 
ATOM     17  C   UNL     1       1.419  -0.680  -2.163  1.00  0.00     0.090 A 
ATOM     18  N   UNL     1       1.120  -1.482  -4.223  1.00  0.00    -0.074 NA
ATOM     19  C   UNL     1       2.495  -1.441  -2.566  1.00  0.00     0.187 A 
ATOM     20  O   UNL     1       2.274  -1.888  -3.780  1.00  0.00    -0.354 OA
BRANCH  19  21
ATOM     21  C   UNL     1       3.701  -1.727  -1.781  1.00  0.00     0.130 A 
ATOM     22  C   UNL     1       4.770  -2.501  -2.194  1.00  0.00     0.054 A 
ATOM     23  N   UNL     1       3.913  -1.275  -0.529  1.00  0.00    -0.170 NA
ATOM     24  C   UNL     1       5.636  -2.487  -1.122  1.00  0.00     0.109 A 
ATOM     25  N   UNL     1       5.095  -1.731  -0.148  1.00  0.00    -0.275 N 
ATOM     26  C   UNL     1       5.659  -1.516   1.177  1.00  0.00     0.173 C 
ENDBRANCH  19  21
ENDBRANCH   2  16
TORSDOF 5
