REMARK SMILES COc1cc(OC)cc(S(=O)(=O)Nc2cc(S(=O)(=O)NC(C)(C)C)ccc2OC)c1
REMARK SMILES IDX 14 1 15 2 16 3 25 4 26 5 27 6 13 7 10 9 11 10 12 11 9 12
REMARK SMILES IDX 3 13 4 14 30 15 5 16 8 17 2 18 1 19 6 20 7 21 28 22 29 23
REMARK SMILES IDX 17 24 18 25 19 26 20 27 21 29 22 30 23 31 24 32
REMARK H PARENT 13 8 20 28
ROOT
ATOM      1  C   UNL     1       1.323  -3.171  -1.557  1.00  0.00     0.092 A 
ATOM      2  C   UNL     1       1.606  -1.792  -1.529  1.00  0.00     0.052 A 
ATOM      3  C   UNL     1       1.606  -1.037  -2.706  1.00  0.00     0.084 A 
ATOM      4  C   UNL     1       1.330  -1.658  -3.929  1.00  0.00     0.026 A 
ATOM      5  C   UNL     1       1.055  -3.025  -3.976  1.00  0.00     0.050 A 
ATOM      6  C   UNL     1       1.043  -3.793  -2.794  1.00  0.00     0.143 A 
ENDROOT
BRANCH   1   7
ATOM      7  N   UNL     1       1.315  -3.949  -0.343  1.00  0.00    -0.276 N 
ATOM      8  H   UNL     1       1.258  -4.991  -0.396  1.00  0.00     0.180 HD
BRANCH   7   9
ATOM      9  S   UNL     1       1.244  -3.251   1.245  1.00  0.00     0.262 S 
ATOM     10  O   UNL     1       1.021  -4.342   2.256  1.00  0.00    -0.201 OA
ATOM     11  O   UNL     1       2.550  -2.569   1.546  1.00  0.00    -0.201 OA
BRANCH   9  12
ATOM     12  C   UNL     1      -0.099  -2.111   1.335  1.00  0.00     0.095 A 
ATOM     13  C   UNL     1      -1.005   0.037   2.028  1.00  0.00     0.123 A 
ATOM     14  C   UNL     1      -2.261  -0.340   1.508  1.00  0.00     0.092 A 
ATOM     15  C   UNL     1       0.070  -0.854   1.931  1.00  0.00     0.069 A 
ATOM     16  C   UNL     1      -2.439  -1.588   0.900  1.00  0.00     0.123 A 
ATOM     17  C   UNL     1      -1.349  -2.475   0.820  1.00  0.00     0.069 A 
BRANCH  13  18
ATOM     18  O   UNL     1      -0.790   1.276   2.653  1.00  0.00    -0.497 OA
ATOM     19  C   UNL     1      -1.809   2.238   2.908  1.00  0.00     0.278 C 
ENDBRANCH  13  18
BRANCH  16  20
ATOM     20  O   UNL     1      -3.710  -1.909   0.396  1.00  0.00    -0.497 OA
ATOM     21  C   UNL     1      -4.030  -3.127  -0.269  1.00  0.00     0.278 C 
ENDBRANCH  16  20
ENDBRANCH   9  12
ENDBRANCH   7   9
ENDBRANCH   1   7
BRANCH   6  22
ATOM     22  O   UNL     1       0.746  -5.166  -2.813  1.00  0.00    -0.495 OA
ATOM     23  C   UNL     1       0.386  -5.901  -3.980  1.00  0.00     0.278 C 
ENDBRANCH   6  22
BRANCH   3  24
ATOM     24  S   UNL     1       1.904   0.694  -2.610  1.00  0.00     0.241 S 
ATOM     25  O   UNL     1       2.028   1.272  -3.994  1.00  0.00    -0.207 OA
ATOM     26  O   UNL     1       3.194   0.914  -1.868  1.00  0.00    -0.207 OA
BRANCH  24  27
ATOM     27  N   UNL     1       0.544   1.413  -1.782  1.00  0.00    -0.206 NA
ATOM     28  H   UNL     1      -0.257   1.393  -2.458  1.00  0.00     0.141 HD
BRANCH  27  29
ATOM     29  C   UNL     1       0.738   2.788  -1.259  1.00  0.00     0.025 C 
ATOM     30  C   UNL     1      -0.652   3.361  -0.907  1.00  0.00     0.028 C 
ATOM     31  C   UNL     1       1.574   2.744   0.040  1.00  0.00     0.028 C 
ATOM     32  C   UNL     1       1.397   3.733  -2.289  1.00  0.00     0.028 C 
ENDBRANCH  27  29
ENDBRANCH  24  27
ENDBRANCH   3  24
TORSDOF 9
