REMARK SMILES CSc1cc(C)ccc1C(=O)Nc1[nH]nnc1C(=O)N1CCCC1
REMARK SMILES IDX 3 1 4 2 5 3 6 4 7 5 8 6 9 7 2 8 1 9 10 10 11 11 12 12 13 14
REMARK SMILES IDX 14 15 17 16 15 17 16 18 18 20 19 21 20 22 21 23 24 24 22 25
REMARK SMILES IDX 23 26
REMARK H PARENT 12 13 14 19
ROOT
ATOM      1  C   UNL     1       1.914  -2.824  -0.426  1.00  0.00     0.020 A 
ATOM      2  C   UNL     1       2.680  -3.975  -0.659  1.00  0.00     0.019 A 
ATOM      3  C   UNL     1       3.326  -4.168  -1.888  1.00  0.00    -0.050 A 
ATOM      4  C   UNL     1       4.167  -5.388  -2.116  1.00  0.00     0.044 C 
ATOM      5  C   UNL     1       3.225  -3.184  -2.880  1.00  0.00     0.004 A 
ATOM      6  C   UNL     1       2.474  -2.029  -2.653  1.00  0.00     0.015 A 
ATOM      7  C   UNL     1       1.825  -1.825  -1.424  1.00  0.00     0.053 A 
ENDROOT
BRANCH   1   8
ATOM      8  S   UNL     1       1.015  -2.707   1.130  1.00  0.00    -0.129 SA
ATOM      9  C   UNL     1      -0.429  -3.621   0.503  1.00  0.00     0.091 C 
ENDBRANCH   1   8
BRANCH   7  10
ATOM     10  C   UNL     1       1.080  -0.564  -1.216  1.00  0.00     0.258 C 
ATOM     11  O   UNL     1       0.376  -0.101  -2.155  1.00  0.00    -0.269 OA
ATOM     12  N   UNL     1       1.230   0.180   0.003  1.00  0.00    -0.305 N 
ATOM     13  H   UNL     1       2.066  -0.019   0.598  1.00  0.00     0.171 HD
BRANCH  12  14
ATOM     14  C   UNL     1       0.485   1.370   0.292  1.00  0.00     0.162 A 
ATOM     15  N   UNL     1       1.025   2.484   0.806  1.00  0.00    -0.242 N 
ATOM     16  C   UNL     1      -0.866   1.607   0.111  1.00  0.00     0.194 A 
ATOM     17  N   UNL     1       0.056   3.377   0.925  1.00  0.00    -0.067 NA
ATOM     18  N   UNL     1      -1.101   2.872   0.518  1.00  0.00    -0.123 NA
ATOM     19  H   UNL     1       2.024   2.646   1.059  1.00  0.00     0.194 HD
BRANCH  16  20
ATOM     20  C   UNL     1      -1.919   0.648  -0.281  1.00  0.00     0.278 C 
ATOM     21  O   UNL     1      -1.723  -0.582  -0.093  1.00  0.00    -0.267 OA
ATOM     22  N   UNL     1      -3.168   1.083  -0.850  1.00  0.00    -0.337 N 
ATOM     23  C   UNL     1      -3.444   2.437  -1.304  1.00  0.00     0.120 C 
ATOM     24  C   UNL     1      -4.249   0.162  -1.155  1.00  0.00     0.120 C 
ATOM     25  C   UNL     1      -4.735   2.345  -2.106  1.00  0.00     0.023 C 
ATOM     26  C   UNL     1      -5.379   1.021  -1.705  1.00  0.00     0.023 C 
ENDBRANCH  16  20
ENDBRANCH  12  14
ENDBRANCH   7  10
TORSDOF 4
