REMARK SMILES Cc1cccc(Oc2ccc(C(=O)Nc3cccc([C@H]4CCC(=O)N4)c3)nc2)c1
REMARK SMILES IDX 8 1 9 2 10 3 11 4 27 5 28 6 7 7 6 8 2 9 3 10 29 11 4 12 5 13
REMARK SMILES IDX 1 14 12 15 13 16 14 17 15 19 16 20 26 21 17 22 19 23 18 24
REMARK SMILES IDX 20 25 21 26 25 27 22 28 23 29 24 30
REMARK H PARENT 14 18 25 31
ROOT
ATOM      1  C   UNL     1       0.650   2.714  -1.413  1.00  0.00     0.145 A 
ATOM      2  C   UNL     1       0.423   1.483  -2.049  1.00  0.00     0.051 A 
ATOM      3  C   UNL     1       0.688   0.288  -1.376  1.00  0.00     0.038 A 
ATOM      4  C   UNL     1       1.172   0.331  -0.057  1.00  0.00     0.128 A 
ATOM      5  N   UNL     1       1.381   1.539   0.536  1.00  0.00    -0.247 NA
ATOM      6  C   UNL     1       1.150   2.712  -0.110  1.00  0.00     0.159 A 
ENDROOT
BRANCH   1   7
ATOM      7  O   UNL     1       0.444   3.941  -2.060  1.00  0.00    -0.456 OA
BRANCH   7   8
ATOM      8  C   UNL     1      -0.531   4.195  -3.035  1.00  0.00     0.127 A 
ATOM      9  C   UNL     1      -1.232   5.483  -4.979  1.00  0.00    -0.047 A 
ATOM     10  C   UNL     1      -2.478   4.837  -4.953  1.00  0.00     0.003 A 
ATOM     11  C   UNL     1      -0.271   5.170  -4.005  1.00  0.00     0.050 A 
ATOM     12  C   UNL     1      -2.749   3.874  -3.978  1.00  0.00     0.004 A 
ATOM     13  C   UNL     1      -1.781   3.549  -3.024  1.00  0.00     0.047 A 
ATOM     14  C   UNL     1      -0.952   6.557  -5.989  1.00  0.00     0.044 C 
ENDBRANCH   7   8
ENDBRANCH   1   7
BRANCH   4  15
ATOM     15  C   UNL     1       1.449  -0.912   0.697  1.00  0.00     0.274 C 
ATOM     16  O   UNL     1       1.304  -2.030   0.131  1.00  0.00    -0.267 OA
ATOM     17  N   UNL     1       1.934  -0.848   2.049  1.00  0.00    -0.321 N 
ATOM     18  H   UNL     1       2.344   0.053   2.384  1.00  0.00     0.170 HD
BRANCH  17  19
ATOM     19  C   UNL     1       1.972  -1.967   2.952  1.00  0.00     0.041 A 
ATOM     20  C   UNL     1       2.956  -2.010   3.950  1.00  0.00     0.026 A 
ATOM     21  C   UNL     1       1.009  -2.992   2.895  1.00  0.00     0.032 A 
ATOM     22  C   UNL     1       3.001  -3.072   4.855  1.00  0.00     0.003 A 
ATOM     23  C   UNL     1       1.049  -4.065   3.806  1.00  0.00    -0.024 A 
ATOM     24  C   UNL     1       2.057  -4.097   4.782  1.00  0.00     0.006 A 
BRANCH  23  25
ATOM     25  C   UNL     1       0.028  -5.180   3.731  1.00  0.00     0.113 C 
ATOM     26  C   UNL     1      -1.429  -4.666   3.888  1.00  0.00     0.040 C 
ATOM     27  N   UNL     1       0.086  -5.820   2.429  1.00  0.00    -0.349 N 
ATOM     28  C   UNL     1      -2.160  -4.950   2.564  1.00  0.00     0.102 C 
ATOM     29  C   UNL     1      -1.153  -5.683   1.770  1.00  0.00     0.220 C 
ATOM     30  O   UNL     1      -1.361  -6.132   0.610  1.00  0.00    -0.275 OA
ATOM     31  H   UNL     1       0.923  -6.306   2.035  1.00  0.00     0.164 HD
ENDBRANCH  23  25
ENDBRANCH  17  19
ENDBRANCH   4  15
TORSDOF 5
