REMARK SMILES Cc1cc(F)c2nc(O)cc(C(=O)N3CC[C@@H](Nc4ccccc4)C3)c2c1
REMARK SMILES IDX 12 1 13 2 11 3 2 4 3 5 27 6 4 7 26 8 6 9 7 10 10 11 8 12
REMARK SMILES IDX 1 13 5 14 9 15 14 17 15 18 25 19 16 20 17 21 18 22 19 24
REMARK SMILES IDX 20 25 24 26 21 27 23 28 22 29
REMARK H PARENT 9 16 18 23
ROOT
ATOM      1  C   UNL     1       0.131   1.957  -0.480  1.00  0.00     0.254 C 
ATOM      2  O   UNL     1       0.028   2.954  -1.245  1.00  0.00    -0.269 OA
ENDROOT
BRANCH   1   3
ATOM      3  C   UNL     1       0.517   2.175   0.928  1.00  0.00     0.054 A 
ATOM      4  C   UNL     1      -2.490   1.119   2.909  1.00  0.00    -0.047 A 
ATOM      5  C   UNL     1      -2.000   1.297   4.210  1.00  0.00     0.045 A 
ATOM      6  C   UNL     1      -1.663   1.401   1.811  1.00  0.00     0.014 A 
ATOM      7  C   UNL     1      -0.709   1.788   4.418  1.00  0.00     0.149 A 
ATOM      8  C   UNL     1      -0.351   1.878   2.006  1.00  0.00     0.017 A 
ATOM      9  C   UNL     1       0.115   2.086   3.327  1.00  0.00     0.111 A 
ATOM     10  N   UNL     1       1.363   2.580   3.540  1.00  0.00    -0.210 NA
ATOM     11  C   UNL     1       1.789   2.699   1.196  1.00  0.00     0.082 A 
ATOM     12  C   UNL     1       2.200   2.892   2.518  1.00  0.00     0.212 A 
ATOM     13  C   UNL     1      -3.866   0.561   2.690  1.00  0.00     0.044 C 
ATOM     14  F   UNL     1      -0.260   1.972   5.686  1.00  0.00    -0.205 F 
BRANCH  12  15
ATOM     15  O   UNL     1       3.465   3.400   2.801  1.00  0.00    -0.493 OA
ATOM     16  H   UNL     1       4.116   3.643   2.063  1.00  0.00     0.295 HD
ENDBRANCH  12  15
ENDBRANCH   1   3
BRANCH   1  17
ATOM     17  N   UNL     1      -0.107   0.634  -0.992  1.00  0.00    -0.336 N 
ATOM     18  C   UNL     1      -0.676   0.386  -2.305  1.00  0.00     0.122 C 
ATOM     19  C   UNL     1       0.318  -0.585  -0.323  1.00  0.00     0.144 C 
ATOM     20  C   UNL     1      -0.506  -1.108  -2.551  1.00  0.00     0.048 C 
ATOM     21  C   UNL     1      -0.246  -1.727  -1.173  1.00  0.00     0.100 C 
BRANCH  21  22
ATOM     22  N   UNL     1       0.678  -2.868  -1.257  1.00  0.00    -0.380 N 
ATOM     23  H   UNL     1       1.634  -2.770  -0.846  1.00  0.00     0.160 HD
BRANCH  22  24
ATOM     24  C   UNL     1       0.354  -4.125  -1.884  1.00  0.00     0.034 A 
ATOM     25  C   UNL     1      -0.957  -4.441  -2.293  1.00  0.00     0.025 A 
ATOM     26  C   UNL     1       1.373  -5.073  -2.082  1.00  0.00     0.025 A 
ATOM     27  C   UNL     1      -1.232  -5.673  -2.896  1.00  0.00     0.002 A 
ATOM     28  C   UNL     1       1.093  -6.303  -2.685  1.00  0.00     0.002 A 
ATOM     29  C   UNL     1      -0.208  -6.602  -3.093  1.00  0.00     0.000 A 
ENDBRANCH  22  24
ENDBRANCH  21  22
ENDBRANCH   1  17
TORSDOF 5
