REMARK SMILES COC(=O)[C@H]1Cc2ccccc2CN1C(=O)[C@@H]1CC12CCOCC2
REMARK SMILES IDX 5 1 6 2 7 3 8 4 9 5 10 6 11 7 12 8 13 9 14 10 3 11 4 12 2 13
REMARK SMILES IDX 1 14 15 15 16 16 17 17 18 18 19 19 20 20 24 21 21 22 23 23
REMARK SMILES IDX 22 24
REMARK H PARENT
ROOT
ATOM      1  C   UNL     1       0.022   1.146  -0.669  1.00  0.00     0.199 C 
ATOM      2  C   UNL     1       0.178   2.132   0.514  1.00  0.00     0.073 C 
ATOM      3  C   UNL     1       1.398   1.805   1.325  1.00  0.00    -0.040 A 
ATOM      4  C   UNL     1       2.221   2.813   1.849  1.00  0.00     0.004 A 
ATOM      5  C   UNL     1       3.314   2.476   2.653  1.00  0.00     0.000 A 
ATOM      6  C   UNL     1       3.579   1.136   2.950  1.00  0.00     0.000 A 
ATOM      7  C   UNL     1       2.753   0.128   2.443  1.00  0.00     0.006 A 
ATOM      8  C   UNL     1       1.664   0.461   1.623  1.00  0.00    -0.025 A 
ATOM      9  C   UNL     1       0.738  -0.592   1.081  1.00  0.00     0.156 C 
ATOM     10  N   UNL     1       0.347  -0.254  -0.302  1.00  0.00    -0.324 N 
ENDROOT
BRANCH   1  11
ATOM     11  C   UNL     1      -1.371   1.228  -1.228  1.00  0.00     0.328 C 
ATOM     12  O   UNL     1      -2.364   0.985  -0.488  1.00  0.00    -0.250 OA
BRANCH  11  13
ATOM     13  O   UNL     1      -1.552   1.545  -2.577  1.00  0.00    -0.467 OA
ATOM     14  C   UNL     1      -2.837   1.586  -3.187  1.00  0.00     0.282 C 
ENDBRANCH  11  13
ENDBRANCH   1  11
BRANCH  10  15
ATOM     15  C   UNL     1       0.369  -1.263  -1.339  1.00  0.00     0.227 C 
ATOM     16  O   UNL     1       0.463  -0.915  -2.548  1.00  0.00    -0.275 OA
BRANCH  15  17
ATOM     17  C   UNL     1       0.325  -2.732  -1.003  1.00  0.00     0.085 C 
ATOM     18  C   UNL     1      -0.356  -3.639  -2.033  1.00  0.00     0.022 C 
ATOM     19  C   UNL     1      -1.053  -3.341  -0.711  1.00  0.00    -0.013 C 
ATOM     20  C   UNL     1      -1.098  -4.493   0.295  1.00  0.00     0.036 C 
ATOM     21  C   UNL     1      -2.350  -2.529  -0.850  1.00  0.00     0.036 C 
ATOM     22  C   UNL     1      -1.772  -3.992   1.577  1.00  0.00     0.160 C 
ATOM     23  C   UNL     1      -2.910  -2.243   0.547  1.00  0.00     0.160 C 
ATOM     24  O   UNL     1      -3.047  -3.439   1.297  1.00  0.00    -0.381 OA
ENDBRANCH  15  17
ENDBRANCH  10  15
TORSDOF 4
