REMARK SMILES O=C(N[C@H](c1cccnc1)C1CC1)c1cc(-c2ccccc2)[nH]n1
REMARK SMILES IDX 1 1 2 2 3 3 14 5 15 6 24 7 16 8 23 9 17 11 18 12 22 13 19 14
REMARK SMILES IDX 21 15 20 16 4 17 5 18 6 19 10 20 7 21 9 22 8 23 11 24 12 25
REMARK SMILES IDX 13 26
REMARK H PARENT 3 4 23 10
ROOT
ATOM      1  O   UNL     1      -3.202  -0.466   0.140  1.00  0.00    -0.267 OA
ATOM      2  C   UNL     1      -2.035   0.003   0.066  1.00  0.00     0.272 C 
ATOM      3  N   UNL     1      -1.092  -0.557  -0.861  1.00  0.00    -0.344 N 
ATOM      4  H   UNL     1      -0.216  -0.026  -1.068  1.00  0.00     0.164 HD
ENDROOT
BRANCH   2   5
ATOM      5  C   UNL     1      -1.666   1.133   0.936  1.00  0.00     0.150 A 
ATOM      6  C   UNL     1      -0.404   1.679   1.099  1.00  0.00     0.064 A 
ATOM      7  N   UNL     1      -2.545   1.773   1.732  1.00  0.00    -0.170 NA
ATOM      8  C   UNL     1      -0.582   2.682   2.037  1.00  0.00     0.066 A 
ATOM      9  N   UNL     1      -1.884   2.709   2.392  1.00  0.00    -0.277 N 
ATOM     10  H   UNL     1      -2.339   3.361   3.067  1.00  0.00     0.190 HD
BRANCH   8  11
ATOM     11  C   UNL     1       0.474   3.574   2.587  1.00  0.00    -0.000 A 
ATOM     12  C   UNL     1       0.250   4.316   3.763  1.00  0.00     0.010 A 
ATOM     13  C   UNL     1       1.724   3.684   1.947  1.00  0.00     0.010 A 
ATOM     14  C   UNL     1       1.249   5.146   4.281  1.00  0.00     0.001 A 
ATOM     15  C   UNL     1       2.720   4.514   2.471  1.00  0.00     0.001 A 
ATOM     16  C   UNL     1       2.482   5.244   3.637  1.00  0.00     0.000 A 
ENDBRANCH   8  11
ENDBRANCH   2   5
BRANCH   3  17
ATOM     17  C   UNL     1      -1.387  -1.756  -1.653  1.00  0.00     0.117 C 
BRANCH  17  18
ATOM     18  C   UNL     1      -0.108  -2.518  -1.937  1.00  0.00    -0.007 A 
ATOM     19  C   UNL     1       0.919  -1.954  -2.716  1.00  0.00     0.009 A 
ATOM     20  C   UNL     1       0.081  -3.811  -1.422  1.00  0.00     0.116 A 
ATOM     21  C   UNL     1       2.090  -2.673  -2.959  1.00  0.00     0.020 A 
ATOM     22  N   UNL     1       1.231  -4.492  -1.676  1.00  0.00    -0.264 NA
ATOM     23  C   UNL     1       2.230  -3.955  -2.425  1.00  0.00     0.111 A 
ENDBRANCH  17  18
BRANCH  17  24
ATOM     24  C   UNL     1      -2.071  -1.349  -2.971  1.00  0.00     0.016 C 
ATOM     25  C   UNL     1      -3.590  -1.448  -2.999  1.00  0.00     0.006 C 
ATOM     26  C   UNL     1      -2.747  -2.487  -3.718  1.00  0.00     0.006 C 
ENDBRANCH  17  24
ENDBRANCH   3  17
TORSDOF 5
