REMARK SMILES CCc1noc(-c2ccc(C)c(NCc3ccc(C(=O)N4CCCC4)cc3)c2)n1
REMARK SMILES IDX 7 1 8 2 9 3 10 4 11 5 12 6 28 7 6 8 3 9 4 10 29 11 5 12 2 13
REMARK SMILES IDX 1 14 13 15 14 17 15 18 16 19 27 20 17 21 26 22 18 23 19 24
REMARK SMILES IDX 20 25 21 26 22 27 25 28 23 29 24 30
REMARK H PARENT 13 16
ROOT
ATOM      1  C   UNL     1      -1.139   2.919   0.129  1.00  0.00     0.042 A 
ATOM      2  C   UNL     1      -0.352   3.783   0.901  1.00  0.00     0.014 A 
ATOM      3  C   UNL     1       0.994   3.979   0.591  1.00  0.00     0.006 A 
ATOM      4  C   UNL     1       1.584   3.307  -0.492  1.00  0.00    -0.028 A 
ATOM      5  C   UNL     1       3.047   3.517  -0.778  1.00  0.00     0.046 C 
ATOM      6  C   UNL     1       0.801   2.430  -1.280  1.00  0.00     0.038 A 
ATOM      7  C   UNL     1      -0.559   2.254  -0.961  1.00  0.00     0.039 A 
ENDROOT
BRANCH   1   8
ATOM      8  C   UNL     1      -2.564   2.711   0.452  1.00  0.00     0.257 A 
ATOM      9  C   UNL     1      -4.442   2.778   1.358  1.00  0.00     0.172 A 
ATOM     10  N   UNL     1      -4.562   1.977   0.282  1.00  0.00    -0.062 NA
ATOM     11  N   UNL     1      -3.196   3.275   1.501  1.00  0.00    -0.192 NA
ATOM     12  O   UNL     1      -3.378   1.956  -0.248  1.00  0.00    -0.334 OA
BRANCH   9  13
ATOM     13  C   UNL     1      -5.584   3.141   2.253  1.00  0.00     0.078 C 
ATOM     14  C   UNL     1      -6.183   4.481   1.841  1.00  0.00     0.012 C 
ENDBRANCH   9  13
ENDBRANCH   1   8
BRANCH   6  15
ATOM     15  N   UNL     1       1.386   1.723  -2.393  1.00  0.00    -0.381 N 
ATOM     16  H   UNL     1       2.231   2.117  -2.865  1.00  0.00     0.160 HD
BRANCH  15  17
ATOM     17  C   UNL     1       0.956   0.390  -2.819  1.00  0.00     0.148 C 
BRANCH  17  18
ATOM     18  C   UNL     1       1.104  -0.595  -1.690  1.00  0.00    -0.029 A 
ATOM     19  C   UNL     1       2.377  -0.884  -1.176  1.00  0.00     0.006 A 
ATOM     20  C   UNL     1      -0.024  -1.200  -1.114  1.00  0.00     0.006 A 
ATOM     21  C   UNL     1       2.522  -1.769  -0.105  1.00  0.00     0.014 A 
ATOM     22  C   UNL     1       0.122  -2.087  -0.043  1.00  0.00     0.014 A 
ATOM     23  C   UNL     1       1.397  -2.391   0.459  1.00  0.00     0.040 A 
BRANCH  23  24
ATOM     24  C   UNL     1       1.541  -3.308   1.608  1.00  0.00     0.253 C 
ATOM     25  O   UNL     1       0.730  -3.212   2.568  1.00  0.00    -0.269 OA
ATOM     26  N   UNL     1       2.579  -4.303   1.653  1.00  0.00    -0.339 N 
ATOM     27  C   UNL     1       3.116  -4.965   0.474  1.00  0.00     0.120 C 
ATOM     28  C   UNL     1       3.005  -4.934   2.891  1.00  0.00     0.120 C 
ATOM     29  C   UNL     1       4.118  -5.986   0.995  1.00  0.00     0.023 C 
ATOM     30  C   UNL     1       3.807  -6.162   2.479  1.00  0.00     0.023 C 
ENDBRANCH  23  24
ENDBRANCH  17  18
ENDBRANCH  15  17
ENDBRANCH   6  15
TORSDOF 6
