REMARK SMILES COc1ccc(-c2nc(CCNC(=O)c3cncc(F)c3)co2)cc1
REMARK SMILES IDX 10 1 9 2 7 3 8 4 23 5 22 6 6 7 3 8 4 9 25 10 5 11 24 12 2 13
REMARK SMILES IDX 1 14 11 15 12 16 13 17 14 18 15 20 16 21 21 22 17 23 19 24
REMARK SMILES IDX 18 25 20 26
REMARK H PARENT 12 19
ROOT
ATOM      1  C   UNL     1      -0.289   4.005  -0.091  1.00  0.00     0.081 C 
ENDROOT
BRANCH   1   2
ATOM      2  C   UNL     1       0.324   2.660   0.154  1.00  0.00     0.081 A 
ATOM      3  C   UNL     1       0.759   0.766   0.983  1.00  0.00     0.226 A 
ATOM      4  N   UNL     1       0.063   1.897   1.232  1.00  0.00    -0.214 NA
ATOM      5  O   UNL     1       1.401   0.810  -0.166  1.00  0.00    -0.444 OA
ATOM      6  C   UNL     1       1.146   1.973  -0.710  1.00  0.00     0.221 A 
BRANCH   3   7
ATOM      7  C   UNL     1       0.791  -0.396   1.893  1.00  0.00     0.037 A 
ATOM      8  C   UNL     1       0.849  -2.622   3.624  1.00  0.00     0.118 A 
ATOM      9  C   UNL     1       1.593  -2.629   2.428  1.00  0.00     0.047 A 
ATOM     10  C   UNL     1       0.081  -1.496   3.942  1.00  0.00     0.047 A 
ATOM     11  C   UNL     1       1.561  -1.525   1.571  1.00  0.00     0.017 A 
ATOM     12  C   UNL     1       0.051  -0.391   3.087  1.00  0.00     0.017 A 
BRANCH   8  13
ATOM     13  O   UNL     1       0.847  -3.704   4.516  1.00  0.00    -0.497 OA
ATOM     14  C   UNL     1       1.586  -4.906   4.323  1.00  0.00     0.278 C 
ENDBRANCH   8  13
ENDBRANCH   3   7
ENDBRANCH   1   2
BRANCH   1  15
ATOM     15  C   UNL     1      -1.728   3.879  -0.600  1.00  0.00     0.122 C 
BRANCH  15  16
ATOM     16  N   UNL     1      -1.762   3.206  -1.900  1.00  0.00    -0.352 N 
ATOM     17  C   UNL     1      -2.045   1.803  -2.038  1.00  0.00     0.252 C 
ATOM     18  O   UNL     1      -2.292   1.111  -1.012  1.00  0.00    -0.269 OA
ATOM     19  H   UNL     1      -1.397   3.740  -2.720  1.00  0.00     0.163 HD
BRANCH  17  20
ATOM     20  C   UNL     1      -2.026   1.145  -3.365  1.00  0.00     0.061 A 
ATOM     21  C   UNL     1      -1.776  -0.235  -3.466  1.00  0.00     0.125 A 
ATOM     22  C   UNL     1      -2.268   1.866  -4.546  1.00  0.00     0.056 A 
ATOM     23  N   UNL     1      -1.757  -0.844  -4.682  1.00  0.00    -0.261 NA
ATOM     24  C   UNL     1      -2.243   1.216  -5.782  1.00  0.00     0.142 A 
ATOM     25  C   UNL     1      -1.981  -0.154  -5.830  1.00  0.00     0.150 A 
ATOM     26  F   UNL     1      -2.478   1.907  -6.924  1.00  0.00    -0.205 F 
ENDBRANCH  17  20
ENDBRANCH  15  16
ENDBRANCH   1  15
TORSDOF 6
