REMARK SMILES O=C1C[C@H](Nc2nccc(Oc3ccccc3)n2)[C@H]2CCCCN12
REMARK SMILES IDX 6 1 7 2 8 3 9 4 10 5 18 6 5 7 4 9 1 10 2 11 3 12 24 13 23 14
REMARK SMILES IDX 19 15 22 16 20 17 21 18 11 19 12 20 13 21 17 22 14 23 16 24
REMARK SMILES IDX 15 25
REMARK H PARENT 5 8
ROOT
ATOM      1  C   UNL     1      -0.496   0.588   0.947  1.00  0.00     0.226 A 
ATOM      2  N   UNL     1       0.530   1.216   1.584  1.00  0.00    -0.221 NA
ATOM      3  C   UNL     1       0.378   2.466   2.091  1.00  0.00     0.121 A 
ATOM      4  C   UNL     1      -0.844   3.125   1.962  1.00  0.00     0.089 A 
ATOM      5  C   UNL     1      -1.887   2.476   1.301  1.00  0.00     0.224 A 
ATOM      6  N   UNL     1      -1.693   1.218   0.816  1.00  0.00    -0.177 NA
ENDROOT
BRANCH   1   7
ATOM      7  N   UNL     1      -0.327  -0.732   0.414  1.00  0.00    -0.349 N 
ATOM      8  H   UNL     1      -1.155  -1.179  -0.042  1.00  0.00     0.164 HD
BRANCH   7   9
ATOM      9  C   UNL     1       0.957  -1.443   0.472  1.00  0.00     0.114 C 
ATOM     10  O   UNL     1       1.723  -4.237  -1.669  1.00  0.00    -0.275 OA
ATOM     11  C   UNL     1       1.596  -3.134  -1.074  1.00  0.00     0.225 C 
ATOM     12  C   UNL     1       0.784  -2.946   0.144  1.00  0.00     0.127 C 
ATOM     13  N   UNL     1       2.252  -1.955  -1.492  1.00  0.00    -0.338 N 
ATOM     14  C   UNL     1       3.359  -1.914  -2.446  1.00  0.00     0.120 C 
ATOM     15  C   UNL     1       1.945  -0.863  -0.584  1.00  0.00     0.108 C 
ATOM     16  C   UNL     1       3.998  -0.520  -2.454  1.00  0.00     0.022 C 
ATOM     17  C   UNL     1       3.259  -0.353   0.036  1.00  0.00     0.027 C 
ATOM     18  C   UNL     1       4.340  -0.037  -1.029  1.00  0.00     0.004 C 
ENDBRANCH   7   9
ENDBRANCH   1   7
BRANCH   5  19
ATOM     19  O   UNL     1      -3.127   3.116   1.181  1.00  0.00    -0.439 OA
BRANCH  19  20
ATOM     20  C   UNL     1      -4.147   2.746   0.293  1.00  0.00     0.129 A 
ATOM     21  C   UNL     1      -5.477   2.987   0.662  1.00  0.00     0.047 A 
ATOM     22  C   UNL     1      -3.876   2.184  -0.970  1.00  0.00     0.047 A 
ATOM     23  C   UNL     1      -6.525   2.643  -0.198  1.00  0.00     0.004 A 
ATOM     24  C   UNL     1      -4.926   1.841  -1.828  1.00  0.00     0.004 A 
ATOM     25  C   UNL     1      -6.249   2.067  -1.440  1.00  0.00     0.000 A 
ENDBRANCH  19  20
ENDBRANCH   5  19
TORSDOF 4
