REMARK SMILES c1ccc(-c2noc(C3CCN(C[C@@H]4CCCCNC4)CC3)n2)cc1
REMARK SMILES IDX 13 1 12 2 9 3 10 4 22 5 11 6 21 7 8 8 5 9 6 10 23 11 7 12
REMARK SMILES IDX 4 13 1 14 2 15 25 16 3 17 24 18 14 19 15 20 16 21 17 22
REMARK SMILES IDX 20 24 19 25 18 27
REMARK H PARENT 19 26
REMARK Flexibility Score:   65.900
ROOT
ATOM      1  C   UNL     1      -0.016  -0.150  -3.000  1.00  0.00     0.089 C 
ENDROOT
BRANCH   1   2
ATOM      2  N   UNL     1       1.151   0.094  -2.110  1.00  0.00    -0.303 NA
ATOM      3  C   UNL     1       3.335   0.571  -0.534  1.00  0.00     0.081 C 
ATOM      4  C   UNL     1       2.897   1.769  -1.391  1.00  0.00     0.029 C 
ATOM      5  C   UNL     1       3.419  -0.694  -1.418  1.00  0.00     0.029 C 
ATOM      6  C   UNL     1       1.555   1.521  -2.118  1.00  0.00     0.085 C 
ATOM      7  C   UNL     1       2.292  -0.772  -2.471  1.00  0.00     0.085 C 
BRANCH   3   8
ATOM      8  C   UNL     1       2.422   0.399   0.658  1.00  0.00     0.230 A 
ATOM      9  C   UNL     1       1.156  -0.390   2.123  1.00  0.00     0.202 A 
ATOM     10  N   UNL     1       1.294   0.924   2.391  1.00  0.00    -0.057 NA
ATOM     11  N   UNL     1       1.858  -0.765   1.034  1.00  0.00    -0.191 NA
ATOM     12  O   UNL     1       2.088   1.374   1.468  1.00  0.00    -0.339 OA
BRANCH   9  13
ATOM     13  C   UNL     1       0.281  -1.300   2.890  1.00  0.00     0.023 A 
ATOM     14  C   UNL     1      -1.450  -3.008   4.298  1.00  0.00     0.000 A 
ATOM     15  C   UNL     1      -1.313  -1.673   4.690  1.00  0.00     0.001 A 
ATOM     16  C   UNL     1      -0.725  -3.494   3.207  1.00  0.00     0.001 A 
ATOM     17  C   UNL     1      -0.452  -0.822   3.991  1.00  0.00     0.012 A 
ATOM     18  C   UNL     1       0.137  -2.646   2.504  1.00  0.00     0.012 A 
ENDBRANCH   9  13
ENDBRANCH   3   8
ENDBRANCH   1   2
BRANCH   1  19
ATOM     19  C   UNL     1      -1.251  -0.628  -2.198  1.00  0.00     0.017 C 
BRANCH  19  20
ATOM     20  C   UNL     1      -1.932   0.554  -1.436  1.00  0.00     0.006 C 
BRANCH  20  21
ATOM     21  C   UNL     1      -1.928   0.435   0.096  1.00  0.00     0.002 C 
BRANCH  21  22
ATOM     22  C   UNL     1      -2.796  -0.714   0.659  1.00  0.00     0.015 CG0
ATOM     23  G   UNL     1      -3.189  -1.818  -0.341  1.00  0.00     0.000 G0
ENDBRANCH  21  22
ENDBRANCH  20  21
ENDBRANCH  19  20
BRANCH  19  24
ATOM     24  C   UNL     1      -0.893  -1.862  -1.322  1.00  0.00     0.085 C 
BRANCH  24  25
ATOM     25  N   UNL     1      -2.057  -2.619  -0.830  1.00  0.00    -0.316 NA
ATOM     26  H   UNL     1      -1.733  -3.242  -0.053  1.00  0.00     0.122 HD
BRANCH  25  27
ATOM     27  C   UNL     1      -3.189  -1.818  -0.341  1.00  0.00     0.081 CG0
ATOM     28  G   UNL     1      -2.796  -0.714   0.659  1.00  0.00     0.000 G0
ENDBRANCH  25  27
ENDBRANCH  24  25
ENDBRANCH  19  24
ENDBRANCH   1  19
TORSDOF 4
